<?xml version="1.0" encoding="UTF-8"?>

<!-- generated on 2026-03-20 09:18:23.527080 by Eclipse SUMO randomTrips.py v1_25_0+0000-ac6c5a6752d
<configuration>
    <net-file value="osm.net.xml.gz"/>
    <output-trip-file value="osm.passenger.trips.xml"/>
    <route-file value="osm.passenger.rou.xml"/>
    <prefix value="veh"/>
    <trip-attributes value="departLane=&quot;best&quot;"/>
    <fringe-start-attributes value="departSpeed=&quot;max&quot;"/>
    <vehicle-class value="passenger"/>
    <lanes value="True"/>
    <fringe-factor value="5"/>
    <allow-fringe.min-length value="1000.0"/>
    <edge-permission value="passenger"/>
    <via-edge-types value="highway.motorway,highway.motorway_link,highway.trunk_link,highway.primary_link,highway.secondary_link,highway.tertiary_link"/>
    <min-distance value="300.0"/>
    <min-distance.fringe value="10.0"/>
    <remove-loops value="True"/>
    <insertion-density value="90.0"/>
</configuration>
-->

<routes xmlns:xsi="http://www.w3.org/2001/XMLSchema-instance" xsi:noNamespaceSchemaLocation="http://sumo.dlr.de/xsd/routes_file.xsd">
    <vType id="veh_passenger" vClass="passenger"/>
    <trip id="veh0" depart="0.00" from="491847189" to="-1261910085.272" departLane="best" type="veh_passenger" departSpeed="max"/>
    <trip id="veh1" depart="1.33" from="491849325" to="491853358" departLane="best" type="veh_passenger" departSpeed="max"/>
    <trip id="veh2" depart="2.66" from="830596755#1.468" to="-1282401628" departLane="best" type="veh_passenger"/>
    <trip id="veh3" depart="4.00" from="1261910123" to="-1261910085.272" departLane="best" type="veh_passenger"/>
    <trip id="veh4" depart="5.33" from="-491852284" to="1282213040" departLane="best" type="veh_passenger"/>
    <trip id="veh5" depart="6.66" from="-1261910085.272" to="-491853013.43" departLane="best" type="veh_passenger"/>
    <trip id="veh6" depart="7.99" from="-491852284" to="208463842" departLane="best" type="veh_passenger"/>
    <trip id="veh7" depart="9.33" from="491853358" to="491855300" departLane="best" type="veh_passenger"/>
    <trip id="veh8" depart="10.66" from="-835709649" to="-348676457" departLane="best" type="veh_passenger" departSpeed="max"/>
    <trip id="veh9" depart="11.99" from="831086029.137" to="1261910124" departLane="best" type="veh_passenger"/>
    <trip id="veh10" depart="13.32" from="-1261910124" to="-208463883" departLane="best" type="veh_passenger" departSpeed="max"/>
    <trip id="veh11" depart="14.65" from="828032853#1" to="208463842" departLane="best" type="veh_passenger"/>
    <trip id="veh12" depart="15.99" from="491853358" to="491882469" departLane="best" type="veh_passenger"/>
    <trip id="veh13" depart="17.32" from="1282213040-AddedOffRampEdge" to="835709649" departLane="best" type="veh_passenger"/>
    <trip id="veh14" depart="18.65" from="-835709649.130" to="1282213042" departLane="best" type="veh_passenger"/>
    <trip id="veh15" depart="19.98" from="491882468" to="491849842" departLane="best" type="veh_passenger"/>
    <trip id="veh16" depart="21.32" from="828032853#1.423" to="208463842" departLane="best" type="veh_passenger"/>
    <trip id="veh17" depart="22.65" from="491849325" to="-1261910123.395" departLane="best" type="veh_passenger" departSpeed="max"/>
    <trip id="veh18" depart="23.98" from="-491852285" to="1261910123" departLane="best" type="veh_passenger"/>
    <trip id="veh19" depart="25.31" from="-1261910124" to="-491882138" departLane="best" type="veh_passenger" departSpeed="max"/>
    <trip id="veh20" depart="26.64" from="491847189" to="1281579928" departLane="best" type="veh_passenger" departSpeed="max"/>
    <trip id="veh21" depart="27.98" from="-835709649.130" to="-491853358" departLane="best" type="veh_passenger"/>
    <trip id="veh22" depart="29.31" from="-491855300" to="831086031" departLane="best" type="veh_passenger"/>
    <trip id="veh23" depart="30.64" from="-1282213042" to="491882469" departLane="best" type="veh_passenger" departSpeed="max"/>
    <trip id="veh24" depart="31.97" from="-1282213036#1" to="1282213019" departLane="best" type="veh_passenger"/>
    <trip id="veh25" depart="33.31" from="835723848" to="491852284" departLane="best" type="veh_passenger"/>
    <trip id="veh26" depart="34.64" from="348676457" to="491855300" departLane="best" type="veh_passenger" departSpeed="max"/>
    <trip id="veh27" depart="35.97" from="-491852285" to="-1261910085.272" departLane="best" type="veh_passenger"/>
    <trip id="veh28" depart="37.30" from="-831076606" to="1261910085.305" departLane="best" type="veh_passenger" departSpeed="max"/>
    <trip id="veh29" depart="38.64" from="-208463886.421" to="835709649" departLane="best" type="veh_passenger"/>
    <trip id="veh30" depart="39.97" from="830596755#1" to="1261910124" departLane="best" type="veh_passenger"/>
    <trip id="veh31" depart="41.30" from="491847189" to="1282213019.385" departLane="best" type="veh_passenger" departSpeed="max"/>
    <trip id="veh32" depart="42.63" from="1261910085.305" to="-491855300" departLane="best" type="veh_passenger"/>
    <trip id="veh33" depart="43.96" from="-1261910124" to="491850744" departLane="best" type="veh_passenger" departSpeed="max"/>
    <trip id="veh34" depart="45.30" from="491852723" to="1282213036#1" departLane="best" type="veh_passenger"/>
    <trip id="veh35" depart="46.63" from="-1261910124" to="1282213019" departLane="best" type="veh_passenger" departSpeed="max"/>
    <trip id="veh36" depart="47.96" from="835726113" to="1282213040-AddedOffRampEdge" departLane="best" type="veh_passenger"/>
    <trip id="veh37" depart="49.29" from="831086029.193" to="831076606" departLane="best" type="veh_passenger"/>
    <trip id="veh38" depart="50.63" from="-1261910085" to="491882469" departLane="best" type="veh_passenger"/>
    <trip id="veh39" depart="51.96" from="491849325" to="1282213042" departLane="best" type="veh_passenger" departSpeed="max"/>
    <trip id="veh40" depart="53.29" from="-491855300" to="491852284" departLane="best" type="veh_passenger"/>
    <trip id="veh41" depart="54.62" from="-1261910124" to="1282213039#0" departLane="best" type="veh_passenger" departSpeed="max"/>
    <trip id="veh42" depart="55.95" from="1282213019.385" to="835709649" departLane="best" type="veh_passenger"/>
    <trip id="veh43" depart="57.29" from="830596755#1" to="1261910085" departLane="best" type="veh_passenger"/>
    <trip id="veh44" depart="58.62" from="831086029" to="831076606" departLane="best" type="veh_passenger" departSpeed="max"/>
    <trip id="veh45" depart="59.95" from="-831076606" to="491852284" departLane="best" type="veh_passenger" departSpeed="max"/>
    <trip id="veh46" depart="61.28" from="491850744" to="1282213042" departLane="best" type="veh_passenger"/>
    <trip id="veh47" depart="62.62" from="491852285" to="1282213040-AddedOffRampEdge" departLane="best" type="veh_passenger"/>
    <trip id="veh48" depart="63.95" from="-1261910085.272" to="831086031" departLane="best" type="veh_passenger"/>
    <trip id="veh49" depart="65.28" from="830596755#1" to="830596755#1" departLane="best" type="veh_passenger"/>
    <trip id="veh50" depart="66.61" from="-831076606" to="-1261910123.395" departLane="best" type="veh_passenger" departSpeed="max"/>
    <trip id="veh51" depart="67.94" from="830596755#1" to="835709649" departLane="best" type="veh_passenger"/>
    <trip id="veh52" depart="69.28" from="-1261910124" to="1282213039#1" departLane="best" type="veh_passenger" departSpeed="max"/>
    <trip id="veh53" depart="70.61" from="-1261910124" to="491882469" departLane="best" type="veh_passenger" departSpeed="max"/>
    <trip id="veh54" depart="71.94" from="491852284" to="-348676457" departLane="best" type="veh_passenger"/>
    <trip id="veh55" depart="73.27" from="1282213036#1" to="1282213042" departLane="best" type="veh_passenger"/>
    <trip id="veh56" depart="74.61" from="-491855300" to="831076606" departLane="best" type="veh_passenger"/>
    <trip id="veh57" depart="75.94" from="1261910123" to="-491853358" departLane="best" type="veh_passenger"/>
    <trip id="veh58" depart="77.27" from="1282213040-AddedOffRampEdge" to="491882469" departLane="best" type="veh_passenger"/>
    <trip id="veh59" depart="78.60" from="-208463883" to="1261910124" departLane="best" type="veh_passenger"/>
    <trip id="veh60" depart="79.93" from="-1261910124" to="-491882138" departLane="best" type="veh_passenger" departSpeed="max"/>
    <trip id="veh61" depart="81.27" from="-835709649" to="208463842" departLane="best" type="veh_passenger" departSpeed="max"/>
    <trip id="veh62" depart="82.60" from="-491852285" to="-491855300" departLane="best" type="veh_passenger"/>
    <trip id="veh63" depart="83.93" from="-1261910124" to="491850744" departLane="best" type="veh_passenger" departSpeed="max"/>
    <trip id="veh64" depart="85.26" from="828032853#1.423" to="-1281579932.229" departLane="best" type="veh_passenger"/>
    <trip id="veh65" depart="86.60" from="-208463886.421" to="-348676457" departLane="best" type="veh_passenger"/>
    <trip id="veh66" depart="87.93" from="831086029" to="208463842" departLane="best" type="veh_passenger" departSpeed="max"/>
    <trip id="veh67" depart="89.26" from="-1261910124" to="1282213039#0" departLane="best" type="veh_passenger" departSpeed="max"/>
    <trip id="veh68" depart="90.59" from="1261910123" to="1282213039#1" departLane="best" type="veh_passenger"/>
    <trip id="veh69" depart="91.93" from="491849325" to="491853013" departLane="best" type="veh_passenger" departSpeed="max"/>
    <trip id="veh70" depart="93.26" from="831086031" to="-208463883" departLane="best" type="veh_passenger"/>
    <trip id="veh71" depart="94.59" from="1261910085.305" to="1261910124" departLane="best" type="veh_passenger"/>
    <trip id="veh72" depart="95.92" from="-1282401628" to="1282213039#1" departLane="best" type="veh_passenger"/>
    <trip id="veh73" depart="97.25" from="1282213019" to="831076606" departLane="best" type="veh_passenger"/>
    <trip id="veh74" depart="98.59" from="1282213043" to="-1261910123.395" departLane="best" type="veh_passenger"/>
    <trip id="veh75" depart="99.92" from="828032853#1" to="-491852284" departLane="best" type="veh_passenger"/>
    <trip id="veh76" depart="101.25" from="1282213036#1" to="-491855300" departLane="best" type="veh_passenger"/>
    <trip id="veh77" depart="102.58" from="-491855300" to="491882469" departLane="best" type="veh_passenger"/>
    <trip id="veh78" depart="103.92" from="1282213019.385" to="1282213036#1" departLane="best" type="veh_passenger"/>
    <trip id="veh79" depart="105.25" from="831086029.137" to="835723848" departLane="best" type="veh_passenger"/>
    <trip id="veh80" depart="106.58" from="348676457" to="491882468" departLane="best" type="veh_passenger" departSpeed="max"/>
    <trip id="veh81" depart="107.91" from="-1281579932.229" to="1261910124" departLane="best" type="veh_passenger"/>
    <trip id="veh82" depart="109.24" from="831086029.193" to="208463842" departLane="best" type="veh_passenger"/>
    <trip id="veh83" depart="110.58" from="1282213040-AddedOffRampEdge" to="491882469" departLane="best" type="veh_passenger"/>
    <trip id="veh84" depart="111.91" from="-1261910124" to="208463842" departLane="best" type="veh_passenger" departSpeed="max"/>
    <trip id="veh85" depart="113.24" from="-1281579932.229" to="835709649" departLane="best" type="veh_passenger"/>
    <trip id="veh86" depart="114.57" from="-1261910124" to="-491853013" departLane="best" type="veh_passenger" departSpeed="max"/>
    <trip id="veh87" depart="115.91" from="348676457" to="491853358" departLane="best" type="veh_passenger" departSpeed="max"/>
    <trip id="veh88" depart="117.24" from="-491853013" to="-348676457" departLane="best" type="veh_passenger"/>
    <trip id="veh89" depart="118.57" from="348676457" to="491849842" departLane="best" type="veh_passenger" departSpeed="max"/>
    <trip id="veh90" depart="119.90" from="1261910123" to="208463842" departLane="best" type="veh_passenger"/>
    <trip id="veh91" depart="121.23" from="1282213040" to="831086031" departLane="best" type="veh_passenger"/>
    <trip id="veh92" depart="122.57" from="-208463886" to="491882468" departLane="best" type="veh_passenger"/>
    <trip id="veh93" depart="123.90" from="-491853013" to="1282213019.385" departLane="best" type="veh_passenger"/>
    <trip id="veh94" depart="125.23" from="491849325" to="1261910124" departLane="best" type="veh_passenger" departSpeed="max"/>
    <trip id="veh95" depart="126.56" from="-831076606" to="491882469" departLane="best" type="veh_passenger" departSpeed="max"/>
    <trip id="veh96" depart="127.90" from="-1261910124" to="1282213039#1" departLane="best" type="veh_passenger" departSpeed="max"/>
    <trip id="veh97" depart="129.23" from="835726113" to="835726113" departLane="best" type="veh_passenger"/>
    <trip id="veh98" depart="130.56" from="-1261910124" to="-491855300" departLane="best" type="veh_passenger" departSpeed="max"/>
    <trip id="veh99" depart="131.89" from="-491855300" to="831086031" departLane="best" type="veh_passenger"/>
    <trip id="veh100" depart="133.22" from="830596755#1" to="831076606" departLane="best" type="veh_passenger"/>
    <trip id="veh101" depart="134.56" from="-835709649.130" to="-348676457" departLane="best" type="veh_passenger"/>
    <trip id="veh102" depart="135.89" from="348676457" to="835723848" departLane="best" type="veh_passenger" departSpeed="max"/>
    <trip id="veh103" depart="137.22" from="491847189" to="-1261910085" departLane="best" type="veh_passenger" departSpeed="max"/>
    <trip id="veh104" depart="138.55" from="491855300" to="1261910124" departLane="best" type="veh_passenger"/>
    <trip id="veh105" depart="139.89" from="-1261910124" to="-208463886.421" departLane="best" type="veh_passenger" departSpeed="max"/>
    <trip id="veh106" depart="141.22" from="-1261910124" to="1282213042" departLane="best" type="veh_passenger" departSpeed="max"/>
    <trip id="veh107" depart="142.55" from="-491882138" to="208463842" departLane="best" type="veh_passenger"/>
    <trip id="veh108" depart="143.88" from="491849325" to="-491853013.43" departLane="best" type="veh_passenger" departSpeed="max"/>
    <trip id="veh109" depart="145.22" from="491847189" to="1261910085" departLane="best" type="veh_passenger" departSpeed="max"/>
    <trip id="veh110" depart="146.55" from="-1261910085" to="491882469" departLane="best" type="veh_passenger"/>
    <trip id="veh111" depart="147.88" from="491847189" to="1261910085" departLane="best" type="veh_passenger" departSpeed="max"/>
    <trip id="veh112" depart="149.21" from="491849325" to="1282213042" departLane="best" type="veh_passenger" departSpeed="max"/>
    <trip id="veh113" depart="150.54" from="1281579928" to="-1261910085" departLane="best" type="veh_passenger"/>
    <trip id="veh114" depart="151.88" from="-1261910124" to="831076606" departLane="best" type="veh_passenger" departSpeed="max"/>
    <trip id="veh115" depart="153.21" from="831086029" to="1282213042" departLane="best" type="veh_passenger" departSpeed="max"/>
    <trip id="veh116" depart="154.54" from="491882468" to="208463842" departLane="best" type="veh_passenger"/>
    <trip id="veh117" depart="155.87" from="-1281579932" to="-348676457" departLane="best" type="veh_passenger"/>
    <trip id="veh118" depart="157.21" from="491853013" to="831076606" departLane="best" type="veh_passenger"/>
    <trip id="veh119" depart="158.54" from="830596755#1.468" to="-491853358" departLane="best" type="veh_passenger"/>
    <trip id="veh120" depart="159.87" from="-491853013.43" to="-208463883" departLane="best" type="veh_passenger"/>
    <trip id="veh121" depart="161.20" from="491852285" to="831076606" departLane="best" type="veh_passenger"/>
    <trip id="veh122" depart="162.53" from="1261910085.305" to="491849842" departLane="best" type="veh_passenger"/>
    <trip id="veh123" depart="163.87" from="-1281579932.229" to="831086031" departLane="best" type="veh_passenger"/>
    <trip id="veh124" depart="165.20" from="491855300" to="831076606" departLane="best" type="veh_passenger"/>
    <trip id="veh125" depart="166.53" from="-1261910085.272" to="491882469" departLane="best" type="veh_passenger"/>
    <trip id="veh126" depart="167.86" from="-835709649" to="831086031" departLane="best" type="veh_passenger" departSpeed="max"/>
    <trip id="veh127" depart="169.20" from="491853358" to="831076606" departLane="best" type="veh_passenger"/>
    <trip id="veh128" depart="170.53" from="491855300" to="1261910085" departLane="best" type="veh_passenger"/>
    <trip id="veh129" depart="171.86" from="491852723" to="-208463886" departLane="best" type="veh_passenger"/>
    <trip id="veh130" depart="173.19" from="828032853#1.423" to="831076606" departLane="best" type="veh_passenger"/>
    <trip id="veh131" depart="174.52" from="-491852284" to="828032853#1.423" departLane="best" type="veh_passenger"/>
    <trip id="veh132" depart="175.86" from="1282213019.385" to="1261910124" departLane="best" type="veh_passenger"/>
    <trip id="veh133" depart="177.19" from="491853013" to="-491882138" departLane="best" type="veh_passenger"/>
    <trip id="veh134" depart="178.52" from="-1261910085.272" to="-491853013.43" departLane="best" type="veh_passenger"/>
    <trip id="veh135" depart="179.85" from="-835709649" to="831076606" departLane="best" type="veh_passenger" departSpeed="max"/>
    <trip id="veh136" depart="181.19" from="831086029.193" to="1261910085.305" departLane="best" type="veh_passenger"/>
    <trip id="veh137" depart="182.52" from="491847189" to="1282213019.385" departLane="best" type="veh_passenger" departSpeed="max"/>
    <trip id="veh138" depart="183.85" from="831086031" to="1282213042" departLane="best" type="veh_passenger"/>
    <trip id="veh139" depart="185.18" from="831086029" to="-208463886.421" departLane="best" type="veh_passenger" departSpeed="max"/>
    <trip id="veh140" depart="186.51" from="831086029.193" to="-491852285" departLane="best" type="veh_passenger"/>
    <trip id="veh141" depart="187.85" from="831086029.193" to="1261910085" departLane="best" type="veh_passenger"/>
    <trip id="veh142" depart="189.18" from="-1261910124" to="1282213039#0" departLane="best" type="veh_passenger" departSpeed="max"/>
    <trip id="veh143" depart="190.51" from="491849325" to="1261910124" departLane="best" type="veh_passenger" departSpeed="max"/>
    <trip id="veh144" depart="191.84" from="348676457" to="1282213040" departLane="best" type="veh_passenger" departSpeed="max"/>
    <trip id="veh145" depart="193.18" from="-835709649.130" to="208463842" departLane="best" type="veh_passenger"/>
    <trip id="veh146" depart="194.51" from="-491853358" to="491882468" departLane="best" type="veh_passenger"/>
    <trip id="veh147" depart="195.84" from="1282213040-AddedOffRampEdge" to="491882468" departLane="best" type="veh_passenger"/>
    <trip id="veh148" depart="197.17" from="491849325" to="491853013" departLane="best" type="veh_passenger" departSpeed="max"/>
    <trip id="veh149" depart="198.51" from="-835709649" to="-1281579932.229" departLane="best" type="veh_passenger" departSpeed="max"/>
    <trip id="veh150" depart="199.84" from="491849325" to="1261910124" departLane="best" type="veh_passenger" departSpeed="max"/>
    <trip id="veh151" depart="201.17" from="-831076606" to="830596755#1.468" departLane="best" type="veh_passenger" departSpeed="max"/>
    <trip id="veh152" depart="202.50" from="491849325" to="1261910124" departLane="best" type="veh_passenger" departSpeed="max"/>
    <trip id="veh153" depart="203.83" from="-831076606" to="1282213034" departLane="best" type="veh_passenger" departSpeed="max"/>
    <trip id="veh154" depart="205.17" from="1261910085.305" to="1261910124" departLane="best" type="veh_passenger"/>
    <trip id="veh155" depart="206.50" from="-1261910124" to="1282213036#1" departLane="best" type="veh_passenger" departSpeed="max"/>
    <trip id="veh156" depart="207.83" from="831086029" to="491853358" departLane="best" type="veh_passenger" departSpeed="max"/>
    <trip id="veh157" depart="209.16" from="831086029" to="491849842" departLane="best" type="veh_passenger" departSpeed="max"/>
    <trip id="veh158" depart="210.50" from="-831076606" to="1282213042" departLane="best" type="veh_passenger" departSpeed="max"/>
    <trip id="veh159" depart="211.83" from="-1261910085" to="1261910123" departLane="best" type="veh_passenger"/>
    <trip id="veh160" depart="213.16" from="491847189" to="1282213039#1" departLane="best" type="veh_passenger" departSpeed="max"/>
    <trip id="veh161" depart="214.49" from="1282213019" to="-491855300" departLane="best" type="veh_passenger"/>
    <trip id="veh162" depart="215.82" from="-1261910124" to="1282213040" departLane="best" type="veh_passenger" departSpeed="max"/>
    <trip id="veh163" depart="217.16" from="491847189" to="1261910124" departLane="best" type="veh_passenger" departSpeed="max"/>
    <trip id="veh164" depart="218.49" from="491855300" to="491882469" departLane="best" type="veh_passenger"/>
    <trip id="veh165" depart="219.82" from="491849325" to="-491882138" departLane="best" type="veh_passenger" departSpeed="max"/>
    <trip id="veh166" depart="221.15" from="-491853013.43" to="1282213039#1" departLane="best" type="veh_passenger"/>
    <trip id="veh167" depart="222.49" from="828032853#1" to="-1281579932.229" departLane="best" type="veh_passenger"/>
    <trip id="veh168" depart="223.82" from="1261910085.305" to="491850744" departLane="best" type="veh_passenger"/>
    <trip id="veh169" depart="225.15" from="491847189" to="-1261910085" departLane="best" type="veh_passenger" departSpeed="max"/>
    <trip id="veh170" depart="226.48" from="-1261910124" to="1282213036#1" departLane="best" type="veh_passenger" departSpeed="max"/>
    <trip id="veh171" depart="227.81" from="-1282213042" to="835709649" departLane="best" type="veh_passenger" departSpeed="max"/>
    <trip id="veh172" depart="229.15" from="1282213040" to="-1261910123.395" departLane="best" type="veh_passenger"/>
    <trip id="veh173" depart="230.48" from="-491853013.43" to="830596755#1.468" departLane="best" type="veh_passenger"/>
    <trip id="veh174" depart="231.81" from="1282213019.385" to="828032853#1.423" departLane="best" type="veh_passenger"/>
    <trip id="veh175" depart="233.14" from="491849325" to="835723848" departLane="best" type="veh_passenger" departSpeed="max"/>
    <trip id="veh176" depart="234.48" from="348676457" to="835709649" departLane="best" type="veh_passenger" departSpeed="max"/>
    <trip id="veh177" depart="235.81" from="830596755#1.468" to="208463842" departLane="best" type="veh_passenger"/>
    <trip id="veh178" depart="237.14" from="491849325" to="1282213040" departLane="best" type="veh_passenger" departSpeed="max"/>
    <trip id="veh179" depart="238.47" from="491882468" to="1282213042" departLane="best" type="veh_passenger"/>
    <trip id="veh180" depart="239.80" from="830596755#1.468" to="491882469" departLane="best" type="veh_passenger"/>
    <trip id="veh181" depart="241.14" from="1282213036#1" to="1261910085" departLane="best" type="veh_passenger"/>
    <trip id="veh182" depart="242.47" from="491852284" to="1282213040-AddedOffRampEdge" departLane="best" type="veh_passenger"/>
    <trip id="veh183" depart="243.80" from="491847189" to="1261910085.305" departLane="best" type="veh_passenger" departSpeed="max"/>
    <trip id="veh184" depart="245.13" from="-1261910124" to="1261910123" departLane="best" type="veh_passenger" departSpeed="max"/>
    <trip id="veh185" depart="246.47" from="-491882138" to="1261910124" departLane="best" type="veh_passenger"/>
    <trip id="veh186" depart="247.80" from="1282213040-AddedOffRampEdge" to="-348676457" departLane="best" type="veh_passenger"/>
    <trip id="veh187" depart="249.13" from="-491852285" to="491855300" departLane="best" type="veh_passenger"/>
    <trip id="veh188" depart="250.46" from="491849325" to="-1281579932" departLane="best" type="veh_passenger" departSpeed="max"/>
    <trip id="veh189" depart="251.79" from="1261910085.305" to="1282213042" departLane="best" type="veh_passenger"/>
    <trip id="veh190" depart="253.13" from="1261910123" to="-491853358" departLane="best" type="veh_passenger"/>
    <trip id="veh191" depart="254.46" from="348676457" to="491855300" departLane="best" type="veh_passenger" departSpeed="max"/>
    <trip id="veh192" depart="255.79" from="828032853#1.423" to="491882469" departLane="best" type="veh_passenger"/>
    <trip id="veh193" depart="257.12" from="-835709649" to="491882469" departLane="best" type="veh_passenger" departSpeed="max"/>
    <trip id="veh194" depart="258.46" from="828032853#1" to="835709649" departLane="best" type="veh_passenger"/>
    <trip id="veh195" depart="259.79" from="1261910123" to="491882469" departLane="best" type="veh_passenger"/>
    <trip id="veh196" depart="261.12" from="1282213043" to="208463842" departLane="best" type="veh_passenger"/>
    <trip id="veh197" depart="262.45" from="-491852284" to="-491855300" departLane="best" type="veh_passenger"/>
    <trip id="veh198" depart="263.79" from="1282213019" to="-1261910085.272" departLane="best" type="veh_passenger"/>
    <trip id="veh199" depart="265.12" from="-835709649" to="491853358" departLane="best" type="veh_passenger" departSpeed="max"/>
    <trip id="veh200" depart="266.45" from="1261910085.305" to="-491852284" departLane="best" type="veh_passenger"/>
    <trip id="veh201" depart="267.78" from="491847189" to="-1261910085.272" departLane="best" type="veh_passenger" departSpeed="max"/>
    <trip id="veh202" depart="269.11" from="1261910085" to="1282213043" departLane="best" type="veh_passenger"/>
    <trip id="veh203" depart="270.45" from="-1261910085.272" to="491852284" departLane="best" type="veh_passenger"/>
    <trip id="veh204" depart="271.78" from="-1261910124" to="1282213039#1" departLane="best" type="veh_passenger" departSpeed="max"/>
    <trip id="veh205" depart="273.11" from="-1261910123.395" to="1282213019" departLane="best" type="veh_passenger"/>
    <trip id="veh206" depart="274.44" from="-208463886.421" to="1261910124" departLane="best" type="veh_passenger"/>
    <trip id="veh207" depart="275.78" from="491850744" to="1282213019" departLane="best" type="veh_passenger"/>
    <trip id="veh208" depart="277.11" from="491849842" to="830596755#1" departLane="best" type="veh_passenger"/>
    <trip id="veh209" depart="278.44" from="-491853013.43" to="-1282213036#1" departLane="best" type="veh_passenger"/>
    <trip id="veh210" depart="279.77" from="-1261910085.272" to="1282213042" departLane="best" type="veh_passenger"/>
    <trip id="veh211" depart="281.10" from="835726113" to="1261910124" departLane="best" type="veh_passenger"/>
    <trip id="veh212" depart="282.44" from="491847189" to="491882469" departLane="best" type="veh_passenger" departSpeed="max"/>
    <trip id="veh213" depart="283.77" from="491847189" to="491882469" departLane="best" type="veh_passenger" departSpeed="max"/>
    <trip id="veh214" depart="285.10" from="831086029.137" to="-491853013.43" departLane="best" type="veh_passenger"/>
    <trip id="veh215" depart="286.43" from="-1261910085.272" to="-348676457" departLane="best" type="veh_passenger"/>
    <trip id="veh216" depart="287.77" from="-1261910124" to="491853013" departLane="best" type="veh_passenger" departSpeed="max"/>
    <trip id="veh217" depart="289.10" from="348676457" to="-491855300" departLane="best" type="veh_passenger" departSpeed="max"/>
    <trip id="veh218" depart="290.43" from="491849842" to="-208463886.421" departLane="best" type="veh_passenger"/>
    <trip id="veh219" depart="291.76" from="491855300" to="835709649" departLane="best" type="veh_passenger"/>
    <trip id="veh220" depart="293.09" from="-1261910124" to="-1261910085.272" departLane="best" type="veh_passenger" departSpeed="max"/>
    <trip id="veh221" depart="294.43" from="-831076606" to="491853358" departLane="best" type="veh_passenger" departSpeed="max"/>
    <trip id="veh222" depart="295.76" from="831086029.193" to="1282213019.385" departLane="best" type="veh_passenger"/>
    <trip id="veh223" depart="297.09" from="491849325" to="-1281579932.229" departLane="best" type="veh_passenger" departSpeed="max"/>
    <trip id="veh224" depart="298.42" from="-1261910124" to="491882469" departLane="best" type="veh_passenger" departSpeed="max"/>
    <trip id="veh225" depart="299.76" from="828032853#1" to="208463842" departLane="best" type="veh_passenger"/>
    <trip id="veh226" depart="301.09" from="-1261910124" to="835709649" departLane="best" type="veh_passenger" departSpeed="max"/>
    <trip id="veh227" depart="302.42" from="491852285" to="1261910124" departLane="best" type="veh_passenger"/>
    <trip id="veh228" depart="303.75" from="1281579928" to="1281579928" departLane="best" type="veh_passenger"/>
    <trip id="veh229" depart="305.08" from="828032853#1" to="830596755#1" departLane="best" type="veh_passenger"/>
    <trip id="veh230" depart="306.42" from="-1261910124" to="835709649" departLane="best" type="veh_passenger" departSpeed="max"/>
    <trip id="veh231" depart="307.75" from="491847189" to="830596755#1" departLane="best" type="veh_passenger" departSpeed="max"/>
    <trip id="veh232" depart="309.08" from="491849325" to="1282213039#0" departLane="best" type="veh_passenger" departSpeed="max"/>
    <trip id="veh233" depart="310.41" from="491849325" to="835709649" departLane="best" type="veh_passenger" departSpeed="max"/>
    <trip id="veh234" depart="311.75" from="1282213040-AddedOffRampEdge" to="1282213039#1" departLane="best" type="veh_passenger"/>
    <trip id="veh235" depart="313.08" from="1282213019" to="491882469" departLane="best" type="veh_passenger"/>
    <trip id="veh236" depart="314.41" from="-491855300" to="831076606" departLane="best" type="veh_passenger"/>
    <trip id="veh237" depart="315.74" from="491882468" to="-1282401628" departLane="best" type="veh_passenger"/>