<?xml version="1.0" encoding="UTF-8"?>

<!-- generated on 2026-03-20 09:18:23.735824 by Eclipse SUMO randomTrips.py v1_25_0+0000-ac6c5a6752d
<configuration>
    <net-file value="osm.net.xml.gz"/>
    <output-trip-file value="osm.passenger.trips.xml"/>
    <route-file value="osm.passenger.rou.xml"/>
    <prefix value="veh"/>
    <trip-attributes value="departLane=&quot;best&quot;"/>
    <fringe-start-attributes value="departSpeed=&quot;max&quot;"/>
    <vehicle-class value="passenger"/>
    <lanes value="True"/>
    <fringe-factor value="5"/>
    <allow-fringe.min-length value="1000.0"/>
    <edge-permission value="passenger"/>
    <via-edge-types value="highway.motorway,highway.motorway_link,highway.trunk_link,highway.primary_link,highway.secondary_link,highway.tertiary_link"/>
    <min-distance value="300.0"/>
    <min-distance.fringe value="10.0"/>
    <remove-loops value="True"/>
    <insertion-density value="90.0"/>
</configuration>
-->

<!-- generated on 2026-03-20T09:18:23.608277+08:00 by Eclipse SUMO duarouter 1.25.0
<duarouterConfiguration xmlns:xsi="http://www.w3.org/2001/XMLSchema-instance" xsi:noNamespaceSchemaLocation="http://sumo.dlr.de/xsd/duarouterConfiguration.xsd">

    <input>
        <net-file value="osm.net.xml.gz"/>
        <route-files value="osm.passenger.trips.xml"/>
    </input>

    <output>
        <output-file value="osm.passenger.rou.xml"/>
        <alternatives-output value="NUL"/>
    </output>

    <processing>
        <remove-loops value="true"/>
    </processing>

    <time>
        <begin value="0.0"/>
        <end value="3600.0"/>
    </time>

    <report>
        <no-warnings value="true"/>
        <ignore-errors value="true"/>
        <no-step-log value="true"/>
    </report>

</duarouterConfiguration>
-->

<routes xmlns:xsi="http://www.w3.org/2001/XMLSchema-instance" xsi:noNamespaceSchemaLocation="http://sumo.dlr.de/xsd/routes_file.xsd">
    <vType id="veh_passenger" vClass="passenger"/>
    <vehicle id="veh0" type="veh_passenger" depart="0.00" departLane="best" departSpeed="max">
        <route edges="491847189 -1281579932 -1281579932.229 -1261910123 -1261910123.395 -1261910085 -1261910085.272"/>
    </vehicle>
    <vehicle id="veh1" type="veh_passenger" depart="1.33" departLane="best" departSpeed="max">
        <route edges="491849325 830596755#1 830596755#1.468 835726113 491853013 491853358"/>
    </vehicle>
    <vehicle id="veh2" type="veh_passenger" depart="2.66" departLane="best">
        <route edges="830596755#1.468 835726113 491853013"/>
    </vehicle>
    <vehicle id="veh3" type="veh_passenger" depart="4.00" departLane="best">
        <route edges="1261910085.305 -1261910085 -1261910085.272"/>
    </vehicle>
    <vehicle id="veh4" type="veh_passenger" depart="5.33" departLane="best">
        <route edges="-491852284 -491852285 -491882138 491850744 830596755#1 830596755#1.468 1282213040"/>
    </vehicle>
    <vehicle id="veh5" type="veh_passenger" depart="6.66" departLane="best">
        <route edges="-1261910085.272 -491855300 -491853358 -491853013 -491853013.43"/>
    </vehicle>
    <vehicle id="veh6" type="veh_passenger" depart="7.99" departLane="best">
        <route edges="-491852284 -491852285 -491882138 835723848 208463842"/>
    </vehicle>
    <vehicle id="veh7" type="veh_passenger" depart="9.33" departLane="best">
        <route edges="491853358 491855300"/>
    </vehicle>
    <vehicle id="veh8" type="veh_passenger" depart="10.66" departLane="best" departSpeed="max">
        <route edges="-835709649 -835709649.130 1261910085 1261910085.305 -348676457"/>
    </vehicle>
    <vehicle id="veh9" type="veh_passenger" depart="11.99" departLane="best">
        <route edges="831086029.137 831086029.193 1282213036#1 828032853#1 828032853#1.423 1261910085 1261910085.305 1261910124"/>
    </vehicle>
    <vehicle id="veh10" type="veh_passenger" depart="13.32" departLane="best" departSpeed="max">
        <route edges="-1261910124 -1261910085 -1261910085.272 -208463883"/>
    </vehicle>
    <vehicle id="veh11" type="veh_passenger" depart="14.65" departLane="best">
        <route edges="828032853#1 828032853#1.423 -491855300 -491853358 -491853013 -491853013.43 1282401628 1282213043 208463842"/>
    </vehicle>
    <vehicle id="veh12" type="veh_passenger" depart="15.99" departLane="best">
        <route edges="491853358 491855300 -208463883 -1282213036#1 1282213019 1282213019.385 831086031 491882468 491882469"/>
    </vehicle>
    <vehicle id="veh13" type="veh_passenger" depart="17.32" departLane="best">
        <route edges="1282213040-AddedOffRampEdge 1282213038 828032853#1 828032853#1.423 835709649"/>
    </vehicle>
    <vehicle id="veh14" type="veh_passenger" depart="18.65" departLane="best">
        <route edges="-835709649.130 -491855300 -491853358 -491853013 -491853013.43 1282401628 1282213042"/>
    </vehicle>
    <vehicle id="veh15" type="veh_passenger" depart="19.98" departLane="best">
        <route edges="491882468 491849842"/>
    </vehicle>
    <vehicle id="veh16" type="veh_passenger" depart="21.32" departLane="best">
        <route edges="828032853#1.423 -491855300 -491853358 -491853013 -491853013.43 1282401628 1282213043 208463842"/>
    </vehicle>
    <vehicle id="veh17" type="veh_passenger" depart="22.65" departLane="best" departSpeed="max">
        <route edges="491849325 830596755#1 830596755#1.468 835726113 1282401628 -1261910123 -1261910123.395"/>
    </vehicle>
    <vehicle id="veh18" type="veh_passenger" depart="23.98" departLane="best">
        <route edges="-491852285 -491882138 835723848 -1281579932 -1281579932.229 -1282401628"/>
    </vehicle>
    <vehicle id="veh19" type="veh_passenger" depart="25.31" departLane="best" departSpeed="max">
        <route edges="-1261910124 1261910123 -1282401628 -491852284 -491852285 -491882138"/>
    </vehicle>
    <vehicle id="veh20" type="veh_passenger" depart="26.64" departLane="best" departSpeed="max">
        <route edges="491847189 1281579928"/>
    </vehicle>
    <vehicle id="veh21" type="veh_passenger" depart="27.98" departLane="best">
        <route edges="-835709649.130 -491855300 -491853358"/>
    </vehicle>
    <vehicle id="veh22" type="veh_passenger" depart="29.31" departLane="best">
        <route edges="-491855300 -491853358 -491853013 -491853013.43 -208463886 -208463886.421 831086031"/>
    </vehicle>
    <vehicle id="veh23" type="veh_passenger" depart="30.64" departLane="best" departSpeed="max">
        <route edges="-1282213042 -1282401628 -208463886 -208463886.421 831086031 491882468 491882469"/>
    </vehicle>
    <vehicle id="veh24" type="veh_passenger" depart="31.97" departLane="best">
        <route edges="-1282213036#1 1282213019"/>
    </vehicle>
    <vehicle id="veh25" type="veh_passenger" depart="33.31" departLane="best">
        <route edges="491849842 491852723 491852285 491852284"/>
    </vehicle>
    <vehicle id="veh26" type="veh_passenger" depart="34.64" departLane="best" departSpeed="max">
        <route edges="348676457 1261910123 -1282401628 491853013 491853358 491855300"/>
    </vehicle>
    <vehicle id="veh27" type="veh_passenger" depart="35.97" departLane="best">
        <route edges="-491852285 -491882138 835723848 -1281579932 -1281579932.229 -1261910123 -1261910123.395 -1261910085 -1261910085.272"/>
    </vehicle>
    <vehicle id="veh28" type="veh_passenger" depart="37.30" departLane="best" departSpeed="max">
        <route edges="-831076606 -1281579932 -1281579932.229 -1282401628 491853013 491853358 491855300 1261910085 1261910085.305"/>
    </vehicle>
    <vehicle id="veh29" type="veh_passenger" depart="38.64" departLane="best">
        <route edges="-208463886.421 1282213040 1282213040-AddedOffRampEdge 1282213038 828032853#1 828032853#1.423 835709649"/>
    </vehicle>
    <vehicle id="veh30" type="veh_passenger" depart="39.97" departLane="best">
        <route edges="830596755#1 830596755#1.468 835726113 1282401628 -1261910123 -1261910123.395 1261910124"/>
    </vehicle>
    <vehicle id="veh31" type="veh_passenger" depart="41.30" departLane="best" departSpeed="max">
        <route edges="491847189 -1281579932 -1281579932.229 -1282401628 491853013 491853358 491855300 -208463883 -1282213036#1 1282213019 1282213019.385"/>
    </vehicle>
    <vehicle id="veh32" type="veh_passenger" depart="42.63" departLane="best">
        <route edges="1261910085.305 -1261910085 -1261910085.272 -491855300"/>
    </vehicle>
    <vehicle id="veh33" type="veh_passenger" depart="43.96" departLane="best" departSpeed="max">
        <route edges="-1261910124 1261910123 1282213043 1281579928 491850744"/>
    </vehicle>
    <vehicle id="veh34" type="veh_passenger" depart="45.30" departLane="best">
        <route edges="491852723 491852285 491852284 491853013 491853358 491855300 -208463883 -1282213036#1"/>
    </vehicle>
    <vehicle id="veh35" type="veh_passenger" depart="46.63" departLane="best" departSpeed="max">
        <route edges="-1261910124 -1261910085 -1261910085.272 -208463883 -1282213036#1 1282213019"/>
    </vehicle>
    <vehicle id="veh36" type="veh_passenger" depart="47.96" departLane="best">
        <route edges="830596755#1.468 1282213040 1282213040-AddedOffRampEdge"/>
    </vehicle>
    <vehicle id="veh37" type="veh_passenger" depart="49.29" departLane="best">
        <route edges="831086029.193 1282213019 1282213019.385 835726113 1282401628 1282213043 831076606"/>
    </vehicle>
    <vehicle id="veh38" type="veh_passenger" depart="50.63" departLane="best">
        <route edges="-1261910085 -1261910085.272 -491855300 -491853358 -491853013 -491853013.43 -208463886 -208463886.421 831086031 491882468 491882469"/>
    </vehicle>
    <vehicle id="veh39" type="veh_passenger" depart="51.96" departLane="best" departSpeed="max">
        <route edges="491849325 830596755#1 830596755#1.468 835726113 1282401628 1282213042"/>
    </vehicle>
    <vehicle id="veh40" type="veh_passenger" depart="53.29" departLane="best">
        <route edges="-491855300 -491853358 -491853013 -491853013.43 1282401628"/>
    </vehicle>
    <vehicle id="veh41" type="veh_passenger" depart="54.62" departLane="best" departSpeed="max">
        <route edges="-1261910124 1261910123 -1282401628 -208463886 -208463886.421 1282213040 1282213040-AddedOffRampEdge 1282213034 1282213039#0"/>
    </vehicle>
    <vehicle id="veh42" type="veh_passenger" depart="55.95" departLane="best">
        <route edges="1282213019.385 835726113 491853013 491853358 491855300 835709649"/>
    </vehicle>
    <vehicle id="veh43" type="veh_passenger" depart="57.29" departLane="best">
        <route edges="830596755#1 830596755#1.468 835726113 491853013 491853358 491855300 1261910085"/>
    </vehicle>
    <vehicle id="veh44" type="veh_passenger" depart="58.62" departLane="best" departSpeed="max">
        <route edges="831086029 831086029.137 831086029.193 1282213019 1282213019.385 835726113 1282401628 1282213043 831076606"/>
    </vehicle>
    <vehicle id="veh45" type="veh_passenger" depart="59.95" departLane="best" departSpeed="max">
        <route edges="-831076606 1281579928 491852723 491852285 491852284"/>
    </vehicle>
    <vehicle id="veh46" type="veh_passenger" depart="61.28" departLane="best">
        <route edges="491850744 830596755#1 830596755#1.468 835726113 1282401628 1282213042"/>
    </vehicle>
    <vehicle id="veh47" type="veh_passenger" depart="62.62" departLane="best">
        <route edges="491852285 491852284 -208463886 -208463886.421 1282213040 1282213040-AddedOffRampEdge"/>
    </vehicle>
    <vehicle id="veh48" type="veh_passenger" depart="63.95" departLane="best">
        <route edges="-1261910085.272 -491855300 -491853358 -491853013 -491853013.43 -208463886 -208463886.421 831086031"/>
    </vehicle>
    <vehicle id="veh49" type="veh_passenger" depart="65.28" departLane="best">
        <route edges="830596755#1"/>
    </vehicle>
    <vehicle id="veh50" type="veh_passenger" depart="66.61" departLane="best" departSpeed="max">
        <route edges="-831076606 -1281579932 -1281579932.229 -1261910123 -1261910123.395"/>
    </vehicle>
    <vehicle id="veh51" type="veh_passenger" depart="67.94" departLane="best">
        <route edges="830596755#1 830596755#1.468 835726113 491853013 491853358 491855300 835709649"/>
    </vehicle>
    <vehicle id="veh52" type="veh_passenger" depart="69.28" departLane="best" departSpeed="max">
        <route edges="-1261910124 -1261910085 -1261910085.272 -208463883 1282213037 1282213039#1-AddedOnRampEdge 1282213039#1"/>
    </vehicle>
    <vehicle id="veh53" type="veh_passenger" depart="70.61" departLane="best" departSpeed="max">
        <route edges="-1261910124 1261910123 1282213043 1281579928 491850744 491882469"/>
    </vehicle>
    <vehicle id="veh54" type="veh_passenger" depart="71.94" departLane="best">
        <route edges="491852284 1282401628 -1261910123 -1261910123.395 -348676457"/>
    </vehicle>
    <vehicle id="veh55" type="veh_passenger" depart="73.27" departLane="best">
        <route edges="1282213036#1 828032853#1 828032853#1.423 -491855300 -491853358 -491853013 -491853013.43 1282401628 1282213042"/>
    </vehicle>
    <vehicle id="veh56" type="veh_passenger" depart="74.61" departLane="best">
        <route edges="-491855300 -491853358 -491853013 -491853013.43 1282401628 1282213043 831076606"/>
    </vehicle>
    <vehicle id="veh57" type="veh_passenger" depart="75.94" departLane="best">
        <route edges="1261910085.305 -1261910085 -1261910085.272 -491855300 -491853358"/>
    </vehicle>
    <vehicle id="veh58" type="veh_passenger" depart="77.27" departLane="best">
        <route edges="1282213040-AddedOffRampEdge 1282213038 828032853#1 828032853#1.423 -491855300 -491853358 -491853013 -491853013.43 -208463886 -208463886.421 831086031 491882468 491882469"/>
    </vehicle>
    <vehicle id="veh59" type="veh_passenger" depart="78.60" departLane="best">
        <route edges="828032853#1.423 1261910085 1261910085.305 1261910124"/>
    </vehicle>
    <vehicle id="veh60" type="veh_passenger" depart="79.93" departLane="best" departSpeed="max">
        <route edges="-1261910124 1261910123 -1282401628 -491852284 -491852285 -491882138"/>
    </vehicle>
    <vehicle id="veh61" type="veh_passenger" depart="81.27" departLane="best" departSpeed="max">
        <route edges="-835709649 -835709649.130 -491855300 -491853358 -491853013 -491853013.43 1282401628 1282213043 208463842"/>
    </vehicle>
    <vehicle id="veh62" type="veh_passenger" depart="82.60" departLane="best">
        <route edges="-491852285 -491882138 835723848 -1281579932 -1281579932.229 -1261910123 -1261910123.395 -1261910085 -1261910085.272 -491855300"/>
    </vehicle>
    <vehicle id="veh63" type="veh_passenger" depart="83.93" departLane="best" departSpeed="max">
        <route edges="-1261910124 1261910123 1282213043 1281579928 491850744"/>
    </vehicle>
    <vehicle id="veh64" type="veh_passenger" depart="85.26" departLane="best">
        <route edges="828032853#1.423 -491855300 -491853358 -491853013 -491853013.43 -491852284 -491852285 -491882138 835723848 -1281579932 -1281579932.229"/>
    </vehicle>
    <vehicle id="veh65" type="veh_passenger" depart="86.60" departLane="best">
        <route edges="-208463886.421 1282213040 1282213040-AddedOffRampEdge 1282213038 828032853#1 828032853#1.423 1261910085 1261910085.305 -348676457"/>
    </vehicle>
    <vehicle id="veh66" type="veh_passenger" depart="87.93" departLane="best" departSpeed="max">
        <route edges="831086029 831086029.137 831086029.193 1282213019 1282213019.385 835726113 1282401628 1282213043 208463842"/>
    </vehicle>
    <vehicle id="veh67" type="veh_passenger" depart="89.26" departLane="best" departSpeed="max">
        <route edges="-1261910124 1261910123 -1282401628 -208463886 -208463886.421 1282213040 1282213040-AddedOffRampEdge 1282213034 1282213039#0"/>
    </vehicle>
    <vehicle id="veh68" type="veh_passenger" depart="90.59" departLane="best">
        <route edges="1261910123 -1282401628 -208463886 -208463886.421 1282213040 1282213040-AddedOffRampEdge 1282213034 1282213039#0 1282213039#1-AddedOnRampEdge 1282213039#1"/>
    </vehicle>
    <vehicle id="veh69" type="veh_passenger" depart="91.93" departLane="best" departSpeed="max">
        <route edges="491849325 830596755#1 830596755#1.468 835726113 491853013"/>
    </vehicle>
    <vehicle id="veh70" type="veh_passenger" depart="93.26" departLane="best">
        <route edges="831086031 491882468 491849842 491852723 491852285 491852284 491853013 491853358 491855300 -208463883"/>
    </vehicle>
    <vehicle id="veh71" type="veh_passenger" depart="94.59" departLane="best">
        <route edges="1261910085.305 1261910124"/>
    </vehicle>
    <vehicle id="veh72" type="veh_passenger" depart="95.92" departLane="best">
        <route edges="-1282401628 -208463886 -208463886.421 1282213040 1282213040-AddedOffRampEdge 1282213034 1282213039#0 1282213039#1-AddedOnRampEdge 1282213039#1"/>
    </vehicle>
    <vehicle id="veh73" type="veh_passenger" depart="97.25" departLane="best">
        <route edges="1282213019 1282213019.385 835726113 1282401628 1282213043 831076606"/>
    </vehicle>
    <vehicle id="veh74" type="veh_passenger" depart="98.59" departLane="best">
        <route edges="1282401628 -1261910123 -1261910123.395"/>
    </vehicle>
    <vehicle id="veh75" type="veh_passenger" depart="99.92" departLane="best">
        <route edges="828032853#1 828032853#1.423 -491855300 -491853358 -491853013 -491853013.43 -491852284"/>
    </vehicle>
    <vehicle id="veh76" type="veh_passenger" depart="101.25" departLane="best">
        <route edges="1282213036#1 828032853#1 828032853#1.423 -491855300"/>
    </vehicle>
    <vehicle id="veh77" type="veh_passenger" depart="102.58" departLane="best">
        <route edges="-491855300 -491853358 -491853013 -491853013.43 -208463886 -208463886.421 831086031 491882468 491882469"/>
    </vehicle>
    <vehicle id="veh78" type="veh_passenger" depart="103.92" departLane="best">
        <route edges="1282213019.385 835726113 491853013 491853358 491855300 -208463883 -1282213036#1"/>
    </vehicle>
    <vehicle id="veh79" type="veh_passenger" depart="105.25" departLane="best">
        <route edges="831086029.137 831086029.193 1282213019 1282213019.385 831086031 491882468 491849842 835723848"/>
    </vehicle>
    <vehicle id="veh80" type="veh_passenger" depart="106.58" departLane="best" departSpeed="max">
        <route edges="348676457 1261910123 -1282401628 -208463886 -208463886.421 831086031 491882468"/>
    </vehicle>
    <vehicle id="veh81" type="veh_passenger" depart="107.91" departLane="best">
        <route edges="-1281579932.229 -1261910123 -1261910123.395 1261910124"/>
    </vehicle>
    <vehicle id="veh82" type="veh_passenger" depart="109.24" departLane="best">
        <route edges="831086029.193 1282213019 1282213019.385 835726113 1282401628 1282213043 208463842"/>
    </vehicle>
    <vehicle id="veh83" type="veh_passenger" depart="110.58" departLane="best">
        <route edges="1282213040-AddedOffRampEdge 1282213038 828032853#1 828032853#1.423 -491855300 -491853358 -491853013 -491853013.43 -208463886 -208463886.421 831086031 491882468 491882469"/>
    </vehicle>
    <vehicle id="veh84" type="veh_passenger" depart="111.91" departLane="best" departSpeed="max">
        <route edges="-1261910124 1261910123 1282213043 208463842"/>
    </vehicle>
    <vehicle id="veh85" type="veh_passenger" depart="113.24" departLane="best">
        <route edges="-1281579932.229 -1282401628 491853013 491853358 491855300 835709649"/>
    </vehicle>
    <vehicle id="veh86" type="veh_passenger" depart="114.57" departLane="best" departSpeed="max">
        <route edges="-1261910124 -1261910085 -1261910085.272 -491855300 -491853358 -491853013"/>
    </vehicle>
    <vehicle id="veh87" type="veh_passenger" depart="115.91" departLane="best" departSpeed="max">
        <route edges="348676457 1261910123 -1282401628 491853013 491853358"/>
    </vehicle>
    <vehicle id="veh88" type="veh_passenger" depart="117.24" departLane="best">
        <route edges="-491853013 -491853013.43 1282401628 -1261910123 -1261910123.395 -348676457"/>
    </vehicle>
    <vehicle id="veh89" type="veh_passenger" depart="118.57" departLane="best" departSpeed="max">
        <route edges="348676457 1261910123 -1282401628 -208463886 -208463886.421 831086031 491882468 491849842"/>
    </vehicle>
    <vehicle id="veh90" type="veh_passenger" depart="119.90" departLane="best">
        <route edges="1261910123 1282213043 208463842"/>
    </vehicle>
    <vehicle id="veh91" type="veh_passenger" depart="121.23" departLane="best">
        <route edges="-208463886.421 831086031"/>
    </vehicle>
    <vehicle id="veh92" type="veh_passenger" depart="122.57" departLane="best">
        <route edges="-208463886 -208463886.421 831086031 491882468"/>
    </vehicle>
    <vehicle id="veh93" type="veh_passenger" depart="123.90" departLane="best">
        <route edges="-491853013 -491853013.43 1282401628 -1261910123 -1261910123.395 -1261910085 -1261910085.272 -208463883 -1282213036#1 1282213019 1282213019.385"/>
    </vehicle>
    <vehicle id="veh94" type="veh_passenger" depart="125.23" departLane="best" departSpeed="max">
        <route edges="491849325 830596755#1 830596755#1.468 835726113 1282401628 -1261910123 -1261910123.395 1261910124"/>
    </vehicle>
    <vehicle id="veh95" type="veh_passenger" depart="126.56" departLane="best" departSpeed="max">
        <route edges="-831076606 1281579928 491850744 491882469"/>
    </vehicle>
    <vehicle id="veh96" type="veh_passenger" depart="127.90" departLane="best" departSpeed="max">
        <route edges="-1261910124 -1261910085 -1261910085.272 -208463883 1282213037 1282213039#1-AddedOnRampEdge 1282213039#1"/>
    </vehicle>
    <vehicle id="veh97" type="veh_passenger" depart="129.23" departLane="best">
        <route edges="835726113"/>
    </vehicle>
    <vehicle id="veh98" type="veh_passenger" depart="130.56" departLane="best" departSpeed="max">
        <route edges="-1261910124 -1261910085 -1261910085.272 -491855300"/>
    </vehicle>
    <vehicle id="veh99" type="veh_passenger" depart="131.89" departLane="best">
        <route edges="-491855300 -491853358 -491853013 -491853013.43 -208463886 -208463886.421 831086031"/>
    </vehicle>
    <vehicle id="veh100" type="veh_passenger" depart="133.22" departLane="best">
        <route edges="830596755#1 830596755#1.468 835726113 1282401628 1282213043 831076606"/>
    </vehicle>
    <vehicle id="veh101" type="veh_passenger" depart="134.56" departLane="best">
        <route edges="-835709649.130 1261910085 1261910085.305 -348676457"/>
    </vehicle>
    <vehicle id="veh102" type="veh_passenger" depart="135.89" departLane="best" departSpeed="max">
        <route edges="348676457 1261910123 -1282401628 -491852284 -491852285 -491882138 835723848"/>
    </vehicle>
    <vehicle id="veh103" type="veh_passenger" depart="137.22" departLane="best" departSpeed="max">
        <route edges="491847189 -1281579932 -1281579932.229 -1261910123 -1261910123.395 -1261910085"/>
    </vehicle>
    <vehicle id="veh104" type="veh_passenger" depart="138.55" departLane="best">
        <route edges="491855300 1261910085 1261910085.305 1261910124"/>
    </vehicle>
    <vehicle id="veh105" type="veh_passenger" depart="139.89" departLane="best" departSpeed="max">
        <route edges="-1261910124 1261910123 -1282401628 -208463886 -208463886.421"/>
    </vehicle>
    <vehicle id="veh106" type="veh_passenger" depart="141.22" departLane="best" departSpeed="max">
        <route edges="-1261910124 1261910123 1282213042"/>
    </vehicle>
    <vehicle id="veh107" type="veh_passenger" depart="142.55" departLane="best">
        <route edges="-491882138 835723848 208463842"/>
    </vehicle>
    <vehicle id="veh108" type="veh_passenger" depart="143.88" departLane="best" departSpeed="max">
        <route edges="491849325 830596755#1 830596755#1.468 1282213040 1282213040-AddedOffRampEdge 1282213038 828032853#1 828032853#1.423 -491855300 -491853358 -491853013 -491853013.43"/>
    </vehicle>
    <vehicle id="veh109" type="veh_passenger" depart="145.22" departLane="best" departSpeed="max">
        <route edges="491847189 -1281579932 -1281579932.229 -1282401628 491853013 491853358 491855300 1261910085"/>
    </vehicle>
    <vehicle id="veh110" type="veh_passenger" depart="146.55" departLane="best">
        <route edges="-1261910085 -1261910085.272 -491855300 -491853358 -491853013 -491853013.43 -208463886 -208463886.421 831086031 491882468 491882469"/>
    </vehicle>
    <vehicle id="veh111" type="veh_passenger" depart="147.88" departLane="best" departSpeed="max">
        <route edges="491847189 -1281579932 -1281579932.229 -1282401628 491853013 491853358 491855300 1261910085"/>
    </vehicle>
    <vehicle id="veh112" type="veh_passenger" depart="149.21" departLane="best" departSpeed="max">
        <route edges="491849325 830596755#1 830596755#1.468 835726113 1282401628 1282213042"/>
    </vehicle>
    <vehicle id="veh113" type="veh_passenger" depart="150.54" departLane="best">
        <route edges="1281579928 491852723 491852285 491852284 1282401628 -1261910123 -1261910123.395 -1261910085"/>
    </vehicle>
    <vehicle id="veh114" type="veh_passenger" depart="151.88" departLane="best" departSpeed="max">
        <route edges="-1261910124 1261910123 1282213043 831076606"/>
    </vehicle>
    <vehicle id="veh115" type="veh_passenger" depart="153.21" departLane="best" departSpeed="max">
        <route edges="831086029 831086029.137 831086029.193 1282213019 1282213019.385 835726113 1282401628 1282213042"/>
    </vehicle>
    <vehicle id="veh116" type="veh_passenger" depart="154.54" departLane="best">
        <route edges="491882468 491849842 835723848 208463842"/>
    </vehicle>
    <vehicle id="veh117" type="veh_passenger" depart="155.87" departLane="best">
        <route edges="-1281579932 -1281579932.229 -1261910123 -1261910123.395 -348676457"/>
    </vehicle>
    <vehicle id="veh118" type="veh_passenger" depart="157.21" departLane="best">
        <route edges="491853013 491853358 491855300 1261910085 1261910085.305 1261910123 1282213043 831076606"/>
    </vehicle>
    <vehicle id="veh119" type="veh_passenger" depart="158.54" departLane="best">
        <route edges="830596755#1.468 1282213040 1282213040-AddedOffRampEdge 1282213038 828032853#1 828032853#1.423 -491855300 -491853358"/>
    </vehicle>
    <vehicle id="veh120" type="veh_passenger" depart="159.87" departLane="best">
        <route edges="-491853013.43 1282401628 -1261910123 -1261910123.395 -1261910085 -1261910085.272 -208463883"/>
    </vehicle>
    <vehicle id="veh121" type="veh_passenger" depart="161.20" departLane="best">
        <route edges="491852285 491852284 1282401628 1282213043 831076606"/>
    </vehicle>
    <vehicle id="veh122" type="veh_passenger" depart="162.53" departLane="best">
        <route edges="1261910085.305 1261910123 -1282401628 -208463886 -208463886.421 831086031 491882468 491849842"/>
    </vehicle>
    <vehicle id="veh123" type="veh_passenger" depart="163.87" departLane="best">
        <route edges="-1281579932.229 -1282401628 -208463886 -208463886.421 831086031"/>
    </vehicle>
    <vehicle id="veh124" type="veh_passenger" depart="165.20" departLane="best">
        <route edges="491855300 1261910085 1261910085.305 1261910123 1282213043 831076606"/>
    </vehicle>
    <vehicle id="veh125" type="veh_passenger" depart="166.53" departLane="best">
        <route edges="-1261910085.272 -491855300 -491853358 -491853013 -491853013.43 -208463886 -208463886.421 831086031 491882468 491882469"/>
    </vehicle>
    <vehicle id="veh126" type="veh_passenger" depart="167.86" departLane="best" departSpeed="max">
        <route edges="-835709649 -835709649.130 -491855300 -491853358 -491853013 -491853013.43 -208463886 -208463886.421 831086031"/>
    </vehicle>
    <vehicle id="veh127" type="veh_passenger" depart="169.20" departLane="best">
        <route edges="491853358 491855300 1261910085 1261910085.305 1261910123 1282213043 831076606"/>
    </vehicle>
    <vehicle id="veh128" type="veh_passenger" depart="170.53" departLane="best">
        <route edges="491855300 1261910085"/>
    </vehicle>
    <vehicle id="veh129" type="veh_passenger" depart="171.86" departLane="best">
        <route edges="491852723 491852285 491852284 -208463886"/>
    </vehicle>
    <vehicle id="veh130" type="veh_passenger" depart="173.19" departLane="best">
        <route edges="828032853#1.423 -491855300 -491853358 -491853013 -491853013.43 1282401628 1282213043 831076606"/>
    </vehicle>
    <vehicle id="veh131" type="veh_passenger" depart="174.52" departLane="best">
        <route edges="-491852284 -491852285 -491882138 491850744 830596755#1 830596755#1.468 1282213040 1282213040-AddedOffRampEdge 1282213038 828032853#1 828032853#1.423"/>
    </vehicle>
    <vehicle id="veh132" type="veh_passenger" depart="175.86" departLane="best">
        <route edges="1282213019.385 835726113 1282401628 -1261910123 -1261910123.395 1261910124"/>
    </vehicle>
    <vehicle id="veh133" type="veh_passenger" depart="177.19" departLane="best">
        <route edges="-1282401628 -491852284 -491852285 -491882138"/>
    </vehicle>
    <vehicle id="veh134" type="veh_passenger" depart="178.52" departLane="best">
        <route edges="-1261910085.272 -491855300 -491853358 -491853013 -491853013.43"/>
    </vehicle>
    <vehicle id="veh135" type="veh_passenger" depart="179.85" departLane="best" departSpeed="max">
        <route edges="-835709649 -835709649.130 -491855300 -491853358 -491853013 -491853013.43 1282401628 1282213043 831076606"/>
    </vehicle>
    <vehicle id="veh136" type="veh_passenger" depart="181.19" departLane="best">
        <route edges="831086029.193 1282213036#1 828032853#1 828032853#1.423 1261910085 1261910085.305"/>
    </vehicle>
    <vehicle id="veh137" type="veh_passenger" depart="182.52" departLane="best" departSpeed="max">