<?xml version="1.0" encoding="UTF-8"?>

<!-- generated on 2026-03-04T02:05:03.381243+08:00 by Eclipse SUMO polyconvert 1.25.0
<polyconvertConfiguration xmlns:xsi="http://www.w3.org/2001/XMLSchema-instance" xsi:noNamespaceSchemaLocation="http://sumo.dlr.de/xsd/polyconvertConfiguration.xsd">

    <input>
        <net-file value="osm.net.xml.gz"/>
        <osm-files value="osm_bbox.osm.xml.gz"/>
        <osm.keep-full-type value="true"/>
        <osm.merge-relations value="1"/>
        <type-file value="${SUMO_HOME}\data\typemap\osmPolyconvert.typ.xml"/>
    </input>

    <output>
        <output-file value="osm.poly.xml.gz"/>
    </output>

    <report>
        <verbose value="true"/>
    </report>

</polyconvertConfiguration>
-->

<additional xmlns:xsi="http://www.w3.org/2001/XMLSchema-instance" xsi:noNamespaceSchemaLocation="http://sumo.dlr.de/xsd/additional_file.xsd">
    <location netOffset="-307677.78,-3395744.49" convBoundary="-74.50,-1.67,1268.11,1424.72" origBoundary="120.991443,30.679060,121.005490,30.691956" projParameter="+proj=utm +zone=51 +ellps=WGS84 +datum=WGS84 +units=m +no_defs"/>

    <poly id="1156990474" type="natural.water" color="181,209,209" fill="1" layer="-4.00" shape="1256.552718,410.672508 1262.793597,410.772284 1256.552718,410.672508"/>
    <poly id="1156990475" type="natural.water" color="181,209,209" fill="1" layer="-4.00" shape="993.497232,282.674051 991.517945,258.158829 1024.522210,148.092573 1045.804024,43.856988 1059.279024,49.760440 1037.048719,158.869726 1028.738344,183.057929 1020.542997,227.713883 1007.679280,285.238221 993.497232,282.674051"/>
    <poly id="1254866805" type="landuse.residential" color="235,235,227" fill="1" layer="-3.00" shape="419.370726,147.111105 535.265534,15.094100 1019.449629,325.702235 922.607171,315.139501 811.681920,293.074400 690.438678,269.652972 585.843765,228.038717 419.370726,147.111105"/>
    <poly id="1254866806" type="landuse.residential" color="235,235,227" fill="1" layer="-3.00" shape="1068.936998,333.005283 1169.971386,347.575429 1217.951916,357.467432 1197.670500,26.319806 1069.726039,319.174697 1068.936998,333.005283"/>
    <poly id="263161490" type="landuse.residential" color="235,235,227" fill="1" layer="-3.00" shape="619.762080,1070.201904 637.605764,663.879698 940.211018,666.582998 942.941072,743.490244 902.386897,752.307091 903.823708,908.876746 841.109304,968.043340 841.537534,1067.934272 619.762080,1070.201904"/>
    <poly id="426718591" type="landuse.residential" color="235,235,227" fill="1" layer="-3.00" shape="962.800024,1388.457232 889.189996,1389.380030 838.594916,1414.310697 841.894852,1424.719690 966.137447,1422.506800 962.800024,1388.457232"/>
    <poly id="426718592" type="landuse.residential" color="235,235,227" fill="1" layer="-3.00" shape="835.167091,1338.635556 819.055350,1306.221882 803.630051,1315.024000 796.143591,1244.998831 712.851574,1249.577177 726.706559,1110.210574 644.503980,1109.303197 637.549048,1112.132887 638.461404,1163.291279 649.458493,1211.941183 608.892546,1231.271645 597.716032,1325.681223 752.559500,1385.871011 757.309993,1384.644193 763.246121,1380.579698 787.678074,1365.252048 815.916431,1347.339484 835.167091,1338.635556"/>
    <poly id="426718593" type="amenity.school" color="237,199,199" fill="1" layer="-2.00" shape="957.109557,1117.294534 953.465231,1109.608386 938.197642,1105.222955 780.862747,1109.189904 796.143591,1244.998831 803.630051,1315.024000 819.055350,1306.221882 860.597553,1298.118823 964.800021,1286.571472 957.109557,1117.294534"/>
    <poly id="426718594" type="landuse.residential" color="235,235,227" fill="1" layer="-3.00" shape="569.161900,1219.527710 556.461482,1211.859097 537.546524,1210.378035 496.190786,1228.403463 454.123020,1271.491330 440.711566,1255.130849 433.961081,1259.742326 449.876306,1302.549204 463.580872,1302.049510 469.779299,1336.302999 460.018739,1340.857308"/>
    <poly id="426718595" type="amenity.fire_station" color="237,199,199" fill="1" layer="-1.00" shape="712.851574,1249.577177 796.143591,1244.998831 780.862747,1109.189904 726.706559,1110.210574 712.851574,1249.577177"/>
    <poly id="426718595#1" type="building.yes" color="255,230,230" fill="1" layer="-1.00" shape="712.851574,1249.577177 796.143591,1244.998831 780.862747,1109.189904 726.706559,1110.210574 712.851574,1249.577177"/>
    <poly id="426718596" type="landuse.residential" color="235,235,227" fill="1" layer="-3.00" shape="574.255420,1048.436884 563.005427,1051.709172 549.406377,1067.808738 133.759154,1081.885930 127.823325,1066.135079 113.223362,1054.630930 183.771533,687.095607 192.971101,684.369673 205.064147,670.336915 321.746364,669.283553 322.047700,686.155298 318.550900,806.952429 358.173179,809.305292 365.295121,805.086351 434.759527,808.447980 432.140692,834.076536 508.273376,836.809507 500.874630,882.982118 494.896500,893.833821 509.931477,900.728869 584.393447,896.328814 574.255420,1048.436884"/>
    <poly id="481352894" type="natural.water" color="white" fill="1" layer="0.00" shape="357.778361,1265.848741 364.104496,1275.039247 372.095749,1276.049758 401.628483,1261.949683 394.410256,1240.366734 385.422495,1225.413218 372.618528,1215.174063 360.773150,1214.609403 353.664842,1235.671995 353.483816,1252.363856 357.778361,1265.848741"/>
    <poly id="491846787" type="natural.water" color="181,209,209" fill="1" layer="-4.00" shape="-48.993494,292.072500 183.810657,27.511695 600.863341,3.434317 625.381297,8.885312 635.639242,7.427233 643.451169,-1.671735 652.983234,-0.300315 657.271226,9.592035 662.372042,21.532405 668.628894,26.277752 681.572939,31.413998 692.425202,34.802251 700.110818,33.135035 706.347899,22.788974 709.173288,8.156926 723.686314,0.224902 722.417110,15.594338 719.420027,34.576228 715.818557,49.222103 716.600245,64.044913 726.011590,87.152482 737.975676,95.388922 745.825185,102.922473 749.849822,112.564504 753.666424,124.516701 759.129955,142.837761 769.778590,148.791210 785.073053,155.682070 793.752755,166.782525 797.695383,171.824204 803.883770,172.734137 810.838839,173.641505 819.676890,179.106079 830.933346,190.670748 837.974871,196.433461 845.538108,202.430839 843.647273,211.424212 837.522484,214.083700 824.873953,210.993438 821.285100,211.822481 817.029869,218.285386 791.165061,209.287410 790.424543,196.770324 789.807348,190.638156 789.480335,186.807277 781.763027,186.689713 776.296010,182.695361 764.880924,176.755563 755.049462,173.094020 747.517950,168.881423 742.821941,165.128390 738.361904,160.095949 733.402656,156.092569 732.826513,152.266130 734.749270,145.068540 735.297400,132.262362 734.897481,124.341036 732.782823,121.307134 709.657618,107.403648 692.788955,98.234483 686.255285,92.473894 685.152456,88.135672 684.979384,78.425015 684.039128,69.227024 677.056907,66.801058 670.319545,63.594519 658.409611,58.938848 652.402374,53.678976 645.383578,49.202262 638.696388,48.811390 631.718000,47.139418 622.916104,43.714671 615.398575,39.756950 608.928668,37.576932 595.957115,30.899926 590.843822,32.776390 589.406695,38.180061 586.911380,42.826389 581.354139,48.292442 575.510931,52.233350 573.061778,58.930278 570.644457,67.411929 570.918056,82.753886 575.352188,100.838191 578.569570,108.199193 586.631928,113.688508 591.350749,118.716277 591.755320,126.892564 586.211961,133.134583 578.727079,146.053393 574.531461,155.853054 569.080546,181.787067 564.331290,189.024016 557.476832,193.759188 555.485309,197.631418 555.086360,204.280700 558.340309,213.692463 555.655261,221.668815 541.749292,263.610583 538.942416,279.262536 518.281803,273.499008 537.585014,217.134250 541.281582,208.374726 546.270917,200.091140 547.155208,191.636822 546.986553,182.181119 548.845319,171.402960 551.979349,159.581890 554.341863,148.029623 551.491198,132.212454 552.265683,118.138097 549.932393,102.311702 548.470774,92.368979 545.883042,77.323335 545.673269,65.561906 547.663522,47.107985 549.726252,33.254606 555.382438,18.827057 554.964201,9.885891 549.446791,3.075998 253.488595,28.052134 221.272323,66.484740 216.291796,75.788498 191.102102,104.625857 170.130991,124.960419 46.970414,267.335565 48.700496,277.794625 17.785328,303.153173 -23.917779,357.103234 -47.266093,402.541514 -56.004341,431.595295 -66.689891,480.898830 -68.573550,533.626550 -67.124800,571.202770"/>
    <poly id="491850932" type="natural.water" color="181,209,209" fill="1" layer="-4.00" shape="791.165061,209.287410 789.536808,219.030153 785.595184,228.570156 779.546874,230.141619 756.210852,223.216626 747.132580,218.255379 735.454957,220.171123 736.461249,228.236888 742.676374,231.186636 753.449306,232.824327 764.322739,245.482450 772.212752,247.226967 771.757246,259.854072 768.093331,264.000007 765.019478,271.140479 761.464174,287.836940 760.797335,293.980897 747.087771,327.081126 743.090401,353.388330 730.253337,362.299573 717.917557,364.382319 702.691491,361.315968 648.943447,342.436272 629.977687,338.727012 616.405175,332.726044 607.615300,324.588388 594.866390,315.867102 584.254376,311.964596 578.828459,310.276072 562.268879,303.918155 544.574282,291.958507 538.942416,279.262536 518.281803,273.499008 513.736246,278.181936 500.393486,279.695187 489.314743,278.107560 470.454645,272.810991 442.016873,264.114796 415.652624,256.146787 392.247404,255.023233 370.107547,253.378143 343.344393,252.059603 333.535591,249.673244 267.596925,242.157282 246.599272,232.563563 235.226178,200.021575 222.121085,142.959979 217.085035,105.702943 214.119781,83.500740 216.291796,75.788498 191.102102,104.625857 199.925355,166.631911 208.610803,221.465990 205.019682,236.111906 195.306898,239.102014 157.194287,250.018080 56.376088,276.116021 48.700496,277.794625 17.785328,303.153173 50.336427,297.459070 76.961730,291.604892 102.557993,285.015142 129.432919,278.646551 146.849263,275.008599 193.214392,265.741399 223.515579,263.924758 252.024448,262.639217 264.618676,262.680369 320.315582,264.502144 342.860959,267.925182 385.071795,270.753229 416.816493,277.860000 442.372777,284.057136 474.952788,294.475795 483.436390,297.795203 507.420526,309.886495 579.933978,343.245412 619.078312,357.406305 641.038579,367.271858 694.280134,391.616201 738.406373,408.926625 770.241025,420.046919 804.179473,426.605617 846.413443,439.392699 892.125494,455.367009 931.361614,468.274322 971.795615,472.566684 1031.815452,471.276803 1074.265896,478.483268 1111.098901,490.469247 1138.499245,501.259174 1173.489119,510.927325 1246.882726,533.086345 1252.519945,489.518395 1245.671007,476.233866 1253.245416,446.215165 1258.906686,423.948217 1264.228706,417.643959 1262.793597,410.772284 1256.552718,410.672508 1248.929277,428.228361 1228.778289,476.434319 1213.684831,486.737901 1196.526457,488.706235 1136.767456,475.553048 1109.315316,464.010009 1108.003695,447.921423 1108.875860,424.752658 1114.828966,398.433041 1126.406326,384.421687 1113.862389,387.195179 1104.344038,387.109426 1101.645045,394.320744 1101.867839,406.847038 1095.372562,431.779129 1091.480655,444.123573 1086.236703,452.655370 1076.574016,458.460325 1053.173626,458.111494 1027.917400,454.724158 977.572925,442.313593 961.993084,433.897327 963.253253,418.006920 977.215928,378.637361 997.719215,331.965939 1008.502812,331.519006 1010.693974,324.316697 1003.320843,314.989213 1004.182591,305.249064 1007.679280,285.238221 993.497232,282.674051 984.855057,288.205879 981.279834,289.799750 980.096203,295.453889 984.656089,306.106629 992.169256,309.299543 988.186465,316.533740 982.979017,327.116352 965.221088,376.721810 945.803577,431.612915 913.834558,425.850369 869.767213,414.515032 830.502841,403.803999 796.513191,395.449750 784.159507,388.994407 763.907097,381.914686 755.470195,373.138572 753.531915,361.175085 756.663425,349.742233 766.163019,335.323937 780.431773,285.192552 784.042306,271.056615 792.149060,264.525082 797.161457,257.527506 797.020268,249.601571 801.828985,245.158036 807.944666,241.988607 810.648056,235.032168 817.029869,218.285386 791.165061,209.287410"/>
    <poly id="491852188" type="building.yes" color="255,230,230" fill="1" layer="-1.00" shape="597.072457,386.906697 600.923615,372.844008 584.060640,368.276765 580.209501,382.339461 597.072457,386.906697"/>
    <poly id="491852189" type="building.yes" color="255,230,230" fill="1" layer="-1.00" shape="611.451547,432.768427 617.378984,409.376341 523.265552,385.783618 517.338297,409.175765 611.451547,432.768427"/>
    <poly id="491852190" type="building.yes" color="255,230,230" fill="1" layer="-1.00" shape="702.007670,457.378917 703.315962,445.823297 720.418964,447.736226 719.120235,459.291673 702.007670,457.378917"/>
    <poly id="491852191" type="building.yes" color="255,230,230" fill="1" layer="-1.00" shape="668.400508,450.049513 669.699185,438.494058 686.811789,440.406764 685.503514,451.962387 668.400508,450.049513"/>
    <poly id="491852192" type="building.yes" color="255,230,230" fill="1" layer="-1.00" shape="684.981219,453.845696 686.279912,442.290244 703.392505,444.202975 702.093794,455.758425 684.981219,453.845696"/>
    <poly id="491852193" type="building.yes" color="255,230,230" fill="1" layer="-1.00" shape="715.321126,427.346158 716.629438,415.790541 733.732286,417.692408 732.433536,429.247852 715.321126,427.346158"/>
    <poly id="491852194" type="building.yes" color="255,230,230" fill="1" layer="-1.00" shape="698.294633,423.812914 699.593347,412.257464 716.705786,414.159134 715.407054,425.714581 698.294633,423.812914"/>
    <poly id="491852195" type="building.yes" color="255,230,230" fill="1" layer="-1.00" shape="681.713884,420.016708 683.012581,408.461256 700.125031,410.362900 698.816735,421.918520 681.713884,420.016708"/>
    <poly id="491881832" type="building.yes" color="255,230,230" fill="1" layer="-1.00" shape="260.489038,1040.022607 260.216821,1029.615095 308.169107,1028.370264 308.228269,1030.609143 324.608282,1030.183479 324.923556,1041.931962 305.162099,1042.440212 305.069394,1038.860189 260.489038,1040.022607"/>
    <poly id="491881833" type="building.yes" color="255,230,230" fill="1" layer="-1.00" shape="259.165225,1008.842399 258.893009,998.434887 306.845435,997.190058 306.895016,999.429108 323.284657,999.003273 323.590350,1010.751927 303.838416,1011.260005 303.745711,1007.679982 259.165225,1008.842399"/>
    <poly id="491881834" type="building.yes" color="255,230,230" fill="1" layer="-1.00" shape="252.476137,778.758627 252.203928,768.351118 300.157382,767.106311 300.216741,769.356274 316.606733,768.930447 316.912220,780.668013 297.160060,781.187167 297.067160,777.596059 252.476137,778.758627"/>
    <poly id="491881835" type="building.yes" color="255,230,230" fill="1" layer="-1.00" shape="174.792583,718.249271 174.520303,707.841761 222.474042,706.596621 222.533218,708.835499 238.923308,708.409558 239.229073,720.158211 219.476797,720.677501 219.383872,717.086394 174.792583,718.249271"/>
    <poly id="491881836" type="building.yes" color="255,230,230" fill="1" layer="-1.00" shape="173.590683,751.271004 173.318399,740.863494 221.271991,739.618341 221.331168,741.857219 237.711627,741.431445 238.017396,753.180098 218.264981,753.688309 218.172254,750.108287 173.590683,751.271004"/>
    <poly id="491881837" type="building.yes" color="255,230,230" fill="1" layer="-1.00" shape="168.227937,782.060647 167.955647,771.653135 215.909102,770.407952 215.968280,772.646830 232.348693,772.221045 232.654470,783.969699 212.902112,784.477922 212.809381,780.897900 168.227937,782.060647"/>
    <poly id="491881838" type="building.yes" color="255,230,230" fill="1" layer="-1.00" shape="160.883092,817.232535 160.610793,806.825024 208.564093,805.579799 208.623273,807.818678 225.013212,807.392708 225.319000,819.141362 205.566706,819.649602 205.473972,816.069579 160.883092,817.232535"/>
    <poly id="491881839" type="building.yes" color="255,230,230" fill="1" layer="-1.00" shape="130.038140,975.078593 129.766000,964.682164 177.718403,963.425681 177.768209,965.675816 194.157909,965.249787 194.463741,976.998444 174.711735,977.506756 174.618988,973.926732 130.038140,975.078593"/>
    <poly id="491881840" type="building.yes" color="255,230,230" fill="1" layer="-1.00" shape="131.276490,944.107609 131.004353,933.711180 178.956894,932.454710 179.016279,934.704674 195.406027,934.278649 195.711856,946.027306 175.959793,946.535612 175.867047,942.955589 131.276490,944.107609"/>
    <poly id="491881841" type="building.yes" color="255,230,230" fill="1" layer="-1.00" shape="143.806583,911.659530 143.534262,901.252017 191.487143,900.006695 191.546328,902.245574 207.936125,901.819570 208.241937,913.568227 188.490013,914.087592 188.387494,910.496655 143.806583,911.659530"/>
    <poly id="491881842" type="building.yes" color="255,230,230" fill="1" layer="-1.00" shape="162.493187,849.937879 162.230665,839.541281 210.174040,838.285142 210.233418,840.535106 226.623308,840.109136 226.928898,851.846706 207.176862,852.366031 207.083930,848.774923 162.493187,849.937879"/>
    <poly id="491881843" type="building.yes" color="255,230,230" fill="1" layer="-1.00" shape="248.134845,852.243984 247.862628,841.836474 295.815755,840.591632 295.875116,842.841595 312.264996,842.415755 312.570492,854.153322 292.818468,854.672491 292.725565,851.081383 248.134845,852.243984"/>
    <poly id="491881844" type="building.yes" color="255,230,230" fill="1" layer="-1.00" shape="241.623100,883.098470 241.350874,872.690959 289.303865,871.446080 289.363029,873.684958 305.743282,873.259278 306.048986,885.007931 286.296819,885.516029 286.204111,881.936006 241.623100,883.098470"/>
    <poly id="491882139" type="building.yes" color="255,230,230" fill="1" layer="-1.00" shape="292.666066,916.417584 292.624044,904.409177 316.782318,904.310291 316.824511,916.329782 292.666066,916.417584"/>
    <poly id="491882140" type="building.yes" color="255,230,230" fill="1" layer="-1.00" shape="298.441545,948.416451 298.263023,936.277417 323.192685,935.909717 323.371376,948.059836 298.441545,948.416451"/>
    <poly id="491882141" type="building.yes" color="255,230,230" fill="1" layer="-1.00" shape="247.346986,933.117527 289.731691,931.872334 290.111138,944.528952 247.726680,945.785232 247.346986,933.117527"/>
    <poly id="491882142" type="building.yes" color="255,230,230" fill="1" layer="-1.00" shape="248.333683,913.250959 248.157089,901.222776 283.232943,900.695873 283.409300,912.712970 248.333683,913.250959"/>
    <poly id="7085628" type="natural.water" color="181,209,209" fill="1" layer="-4.00" shape="445.669374,1417.958761 426.927219,1352.071159 409.875970,1322.391541 397.213507,1315.775872 381.730030,1316.473753 344.252205,1309.602754 322.873047,1311.259868 307.905642,1333.871182 300.974795,1335.891194 230.058533,1346.018408 91.668740,1346.031054 67.839370,1359.641892 49.768307,1364.079119 28.111738,1368.436374 -1.837701,1368.850299 -14.036825,1368.325657 -55.573286,1374.036868 -54.088913,1360.060562 -9.688295,1353.743664 -2.354407,1352.292853 28.518335,1352.062009 57.764387,1345.539732 63.745517,1328.466854 81.598150,1323.601098 256.240382,1319.247858 288.200987,1315.538621 299.790633,1307.159106 311.992679,1291.217197 326.952152,1277.277472 317.278869,1187.475820 308.575101,1165.897277 308.102783,1067.038058 335.078400,1057.829319 339.943425,1050.667776 341.493625,931.956810 340.120528,909.271502 326.792431,871.319775 331.359247,771.261731 333.184689,714.099720 333.085918,686.568039 332.642656,679.456957 338.694479,666.829643 335.492667,623.851266 340.788737,590.368370 341.271896,550.340338 344.916145,529.006983 342.743674,507.710969 361.371690,511.836026 363.465388,527.112242 361.795861,538.275185 363.788308,567.203494 362.399898,600.550063 357.185880,618.773320 351.945353,627.460704 357.695238,664.472172 436.867296,669.357113 436.753081,674.770474 360.119740,675.196083 357.679130,688.257892 355.607067,785.820722 352.273666,810.064884 352.220113,873.072305 363.492865,905.948832 364.765720,932.683336 360.104093,1070.367317 365.569172,1146.172459 374.238678,1170.668003 406.573804,1186.834654 407.701494,1194.709733 423.087685,1217.000688 432.804751,1216.982443 453.855859,1220.021971 474.947696,1228.028587 500.279796,1216.421136 519.179549,1203.087797 550.330327,1197.475462 571.793514,1211.796240 569.161900,1219.527710 556.461482,1211.859097 537.546524,1210.378035 496.190786,1228.403463 454.123020,1271.491330 447.881619,1268.653137 440.711566,1255.130849 433.961081,1259.742326 449.876306,1302.549204 463.580872,1302.049510 469.779299,1336.302999 460.018739,1340.857308 473.854178,1385.808209 752.559500,1385.871011 757.309993,1384.644193 763.246121,1380.579698 787.678074,1365.252048 815.916431,1347.339484 835.167091,1338.635556 848.276464,1332.702375 855.577933,1335.344486 854.396214,1339.479467 769.876819,1390.751887 758.235457,1394.629761 745.148754,1405.053607 1125.352019,1415.115653 1123.412506,1398.206567 1110.811141,1370.753267 1123.228436,1369.545455"/>
    <poly id="941751473" type="natural.water" color="181,209,209" fill="1" layer="-4.00" shape="483.436390,297.795203 455.725058,343.764724 406.678234,408.422729 387.544772,438.803781 358.623637,471.721545 342.743674,507.710969 361.371690,511.836026 380.178233,482.480914 390.264184,457.994254 425.872354,419.556993 442.574028,405.420113 454.595215,375.509851 479.017548,356.844103 487.428712,334.084028 501.168108,324.723923 507.420526,309.886495 483.436390,297.795203"/>
    <poly id="941751474" type="natural.water" color="181,209,209" fill="1" layer="-4.00" shape="-65.268361,1113.479009 -66.211133,1003.517006 -71.290841,719.701043 -67.124800,571.202770"/>
</additional>
