<?xml version="1.0" encoding="UTF-8"?>

<!-- generated on 2026-03-22T15:22:59.254586+08:00 by Eclipse SUMO netedit 1.25.0
<neteditConfiguration xmlns:xsi="http://www.w3.org/2001/XMLSchema-instance" xsi:noNamespaceSchemaLocation="http://sumo.dlr.de/xsd/neteditConfiguration.xsd">

    <input>
        <sumo-net-file value="D:\学校\毕设\Project\Model\nets\osm.net.xml.gz"/>
    </input>

    <output>
        <output-file value="D:\学校\毕设\Project\Model\nets\osm.net.xml.gz"/>
        <output.street-names value="true"/>
    </output>

    <processing>
        <geometry.min-radius.fix.railways value="false"/>
        <geometry.avoid-overlap value="false"/>
        <geometry.max-grade.fix value="false"/>
        <offset.disable-normalization value="true"/>
        <lefthand value="0"/>
    </processing>

    <junctions>
        <no-turnarounds value="true"/>
        <junctions.corner-detail value="5"/>
        <junctions.limit-turn-speed value="5.50"/>
        <rectangular-lane-cut value="0"/>
    </junctions>

    <pedestrian>
        <walkingareas value="0"/>
    </pedestrian>

</neteditConfiguration>
-->

<net version="1.20" junctionCornerDetail="5" limitTurnSpeed="5.50" avoidOverlap="0" xmlns:xsi="http://www.w3.org/2001/XMLSchema-instance" xsi:noNamespaceSchemaLocation="http://sumo.dlr.de/xsd/net_file.xsd">

    <location netOffset="-307677.78,-3395744.49" convBoundary="0.00,0.00,1268.11,1377.87" origBoundary="120.992075,30.679163,121.005490,30.691398" projParameter="+proj=utm +zone=51 +ellps=WGS84 +datum=WGS84 +units=m +no_defs"/>

    <type id="highway.primary" priority="12" numLanes="2" speed="27.78" disallow="tram rail_urban rail rail_electric rail_fast ship container cable_car subway aircraft wheelchair scooter drone" oneway="0"/>
    <type id="highway.primary_link" priority="7" numLanes="1" speed="22.22" disallow="tram rail_urban rail rail_electric rail_fast ship container cable_car subway aircraft wheelchair scooter drone" oneway="0"/>
    <type id="highway.tertiary" priority="10" numLanes="1" speed="22.22" disallow="tram rail_urban rail rail_electric rail_fast ship container cable_car subway aircraft wheelchair scooter drone" oneway="0"/>

    <edge id=":11899000679_0" function="internal">
        <lane id=":11899000679_0_0" index="0" disallow="tram rail_urban rail rail_electric rail_fast ship container cable_car subway aircraft wheelchair scooter drone" speed="27.78" length="8.55" shape="60.80,1144.25 60.54,1146.75 60.74,1148.50 60.94,1150.25 60.68,1152.75"/>
        <lane id=":11899000679_0_1" index="1" disallow="tram rail_urban rail rail_electric rail_fast ship container cable_car subway aircraft wheelchair scooter drone" speed="27.78" length="8.55" shape="57.67,1143.60 57.41,1146.10 57.61,1147.85 57.81,1149.60 57.55,1152.10"/>
        <lane id=":11899000679_0_2" index="2" disallow="tram rail_urban rail rail_electric rail_fast ship container cable_car subway aircraft wheelchair scooter drone" speed="27.78" length="8.55" shape="54.53,1142.95 54.27,1145.45 54.47,1147.20 54.68,1148.96 54.42,1151.46"/>
    </edge>
    <edge id=":11899000679_3" function="internal">
        <lane id=":11899000679_3_0" index="0" disallow="tram rail_urban rail rail_electric rail_fast ship container cable_car subway aircraft wheelchair scooter drone" speed="25.00" length="8.49" shape="63.57,1144.82 63.03,1147.25 62.26,1148.81 61.42,1150.36 60.68,1152.75"/>
        <lane id=":11899000679_3_1" index="1" disallow="tram rail_urban rail rail_electric rail_fast ship container cable_car subway aircraft wheelchair scooter drone" speed="25.00" length="8.49" shape="60.43,1144.17 59.89,1146.60 59.12,1148.16 58.29,1149.71 57.55,1152.10"/>
    </edge>
    <edge id=":11899000688_0" function="internal">
        <lane id=":11899000688_0_0" index="0" disallow="tram rail_urban rail rail_electric rail_fast ship container cable_car subway aircraft wheelchair scooter drone" speed="25.00" length="24.91" shape="85.32,1037.45 80.67,1061.92"/>
    </edge>
    <edge id=":11899000688_1" function="internal">
        <lane id=":11899000688_1_0" index="0" disallow="tram rail_urban rail rail_electric rail_fast ship container cable_car subway aircraft wheelchair scooter drone" speed="27.78" length="24.89" shape="82.18,1036.84 77.43,1061.27"/>
        <lane id=":11899000688_1_1" index="1" disallow="tram rail_urban rail rail_electric rail_fast ship container cable_car subway aircraft wheelchair scooter drone" speed="27.78" length="24.89" shape="79.04,1036.22 74.28,1060.66"/>
        <lane id=":11899000688_1_2" index="2" disallow="tram rail_urban rail rail_electric rail_fast ship container cable_car subway aircraft wheelchair scooter drone" speed="27.78" length="24.89" shape="75.90,1035.61 71.14,1060.04"/>
    </edge>
    <edge id=":1282213039#1-AddedOnRampNode_0" function="internal">
        <lane id=":1282213039#1-AddedOnRampNode_0_0" index="0" disallow="tram rail_urban rail rail_electric rail_fast ship container cable_car subway aircraft wheelchair scooter drone" speed="27.78" length="8.00" shape="38.94,1242.29 37.32,1250.13"/>
        <lane id=":1282213039#1-AddedOnRampNode_0_1" index="1" disallow="tram rail_urban rail rail_electric rail_fast ship container cable_car subway aircraft wheelchair scooter drone" speed="27.78" length="8.00" shape="35.80,1241.65 34.19,1249.48"/>
    </edge>
    <edge id=":1282213040-AddedOffRampNode_0" function="internal">
        <lane id=":1282213040-AddedOffRampNode_0_0" index="0" disallow="tram rail_urban rail rail_electric rail_fast ship container cable_car subway aircraft wheelchair scooter drone" speed="27.78" length="8.20" shape="102.04,934.75 102.07,937.26 102.85,938.98 103.64,940.70 103.66,943.21"/>
        <lane id=":1282213040-AddedOffRampNode_0_1" index="1" disallow="tram rail_urban rail rail_electric rail_fast ship container cable_car subway aircraft wheelchair scooter drone" speed="27.78" length="8.20" shape="102.04,934.75 100.52,942.60"/>
        <lane id=":1282213040-AddedOffRampNode_0_2" index="2" disallow="tram rail_urban rail rail_electric rail_fast ship container cable_car subway aircraft wheelchair scooter drone" speed="27.78" length="8.20" shape="98.90,934.14 97.38,941.99"/>
        <lane id=":1282213040-AddedOffRampNode_0_3" index="3" disallow="tram rail_urban rail rail_electric rail_fast ship container cable_car subway aircraft wheelchair scooter drone" speed="27.78" length="8.20" shape="95.76,933.52 94.23,941.38"/>
    </edge>
    <edge id=":2187544212_0" function="internal">
        <lane id=":2187544212_0_0" index="0" disallow="tram rail_urban rail rail_electric rail_fast ship container cable_car subway aircraft wheelchair scooter drone" speed="7.63" length="12.37" shape="631.40,652.08 627.48,652.47 624.64,653.63 622.89,655.56 622.23,658.24"/>
    </edge>
    <edge id=":2187544212_1" function="internal">
        <lane id=":2187544212_1_0" index="0" disallow="tram rail_urban rail rail_electric rail_fast ship container cable_car subway aircraft wheelchair scooter drone" speed="22.22" length="27.38" shape="631.40,652.08 604.01,652.03"/>
    </edge>
    <edge id=":2187544212_2" function="internal">
        <lane id=":2187544212_2_0" index="0" disallow="tram rail_urban rail rail_electric rail_fast ship container cable_car subway aircraft wheelchair scooter drone" speed="9.29" length="7.13" shape="631.40,652.08 624.72,651.54 624.31,651.39"/>
    </edge>
    <edge id=":2187544212_14" function="internal">
        <lane id=":2187544212_14_0" index="0" disallow="tram rail_urban rail rail_electric rail_fast ship container cable_car subway aircraft wheelchair scooter drone" speed="9.29" length="12.61" shape="624.31,651.39 619.97,649.87 617.14,647.07 616.24,643.14"/>
    </edge>
    <edge id=":2187544212_3" function="internal">
        <lane id=":2187544212_3_0" index="0" disallow="tram rail_urban rail rail_electric rail_fast ship container cable_car subway aircraft wheelchair scooter drone" speed="6.47" length="9.03" shape="625.84,643.27 626.16,645.73 627.19,647.48 628.93,648.53 631.39,648.88"/>
    </edge>
    <edge id=":2187544212_4" function="internal">
        <lane id=":2187544212_4_0" index="0" disallow="tram rail_urban rail rail_electric rail_fast ship container cable_car subway aircraft wheelchair scooter drone" speed="18.05" length="15.47" shape="625.84,643.27 625.28,647.77 624.11,650.76 622.91,653.74 622.23,658.24"/>
        <lane id=":2187544212_4_1" index="1" disallow="tram rail_urban rail rail_electric rail_fast ship container cable_car subway aircraft wheelchair scooter drone" speed="18.05" length="15.47" shape="622.64,643.22 622.08,647.70 620.91,650.67 619.71,653.63 619.03,658.11"/>
    </edge>
    <edge id=":2187544212_6" function="internal">
        <lane id=":2187544212_6_0" index="0" disallow="tram rail_urban rail rail_electric rail_fast ship container cable_car subway aircraft wheelchair scooter drone" speed="9.40" length="19.86" shape="619.44,643.18 618.43,647.08 615.52,649.86 610.72,651.51 604.01,652.03"/>
    </edge>
    <edge id=":2187544212_7" function="internal">
        <lane id=":2187544212_7_0" index="0" disallow="tram rail_urban rail rail_electric rail_fast ship container cable_car subway aircraft wheelchair scooter drone" speed="7.43" length="12.00" shape="604.03,648.83 607.94,648.49 610.75,647.42 612.45,645.62 613.04,643.09"/>
    </edge>
    <edge id=":2187544212_8" function="internal">
        <lane id=":2187544212_8_0" index="0" disallow="tram rail_urban rail rail_electric rail_fast ship container cable_car subway aircraft wheelchair scooter drone" speed="22.22" length="27.36" shape="604.03,648.83 631.39,648.88"/>
    </edge>
    <edge id=":2187544212_9" function="internal">
        <lane id=":2187544212_9_0" index="0" disallow="tram rail_urban rail rail_electric rail_fast ship container cable_car subway aircraft wheelchair scooter drone" speed="9.26" length="6.94" shape="604.03,648.83 610.73,649.44 610.93,649.52"/>
    </edge>
    <edge id=":2187544212_15" function="internal">
        <lane id=":2187544212_15_0" index="0" disallow="tram rail_urban rail rail_electric rail_fast ship container cable_car subway aircraft wheelchair scooter drone" speed="9.26" length="12.95" shape="610.93,649.52 615.47,651.20 618.23,654.08 619.03,658.11"/>
    </edge>
    <edge id=":2187544212_10" function="internal">
        <lane id=":2187544212_10_0" index="0" disallow="tram rail_urban rail rail_electric rail_fast ship container cable_car subway aircraft wheelchair scooter drone" speed="6.43" length="9.03" shape="609.44,657.72 609.18,655.24 608.20,653.47 606.47,652.40 604.01,652.03"/>
    </edge>
    <edge id=":2187544212_11" function="internal">
        <lane id=":2187544212_11_0" index="0" disallow="tram rail_urban rail rail_electric rail_fast ship container cable_car subway aircraft wheelchair scooter drone" speed="18.05" length="15.22" shape="609.44,657.72 610.12,653.32 611.32,650.41 612.48,647.50 613.04,643.09"/>
        <lane id=":2187544212_11_1" index="1" disallow="tram rail_urban rail rail_electric rail_fast ship container cable_car subway aircraft wheelchair scooter drone" speed="18.05" length="15.22" shape="612.63,657.85 613.31,653.42 614.52,650.49 615.68,647.57 616.24,643.14"/>
    </edge>
    <edge id=":2187544212_13" function="internal">
        <lane id=":2187544212_13_0" index="0" disallow="tram rail_urban rail rail_electric rail_fast ship container cable_car subway aircraft wheelchair scooter drone" speed="9.57" length="20.02" shape="615.83,657.98 616.94,654.02 619.91,651.18 624.72,649.46 631.39,648.88"/>
    </edge>
    <edge id=":2187544213_0" function="internal">
        <lane id=":2187544213_0_0" index="0" disallow="tram rail_urban rail rail_electric rail_fast ship container cable_car subway aircraft wheelchair scooter drone" speed="6.62" length="9.23" shape="955.24,656.85 954.83,654.31 953.74,652.50 951.97,651.42 949.53,651.06"/>
    </edge>
    <edge id=":2187544213_1" function="internal">
        <lane id=":2187544213_1_0" index="0" disallow="tram rail_urban rail rail_electric rail_fast ship container cable_car subway aircraft wheelchair scooter drone" speed="22.22" length="18.05" shape="955.24,656.85 955.20,651.38 955.51,647.63 956.30,643.94 957.69,638.63"/>
        <lane id=":2187544213_1_1" index="1" disallow="tram rail_urban rail rail_electric rail_fast ship container cable_car subway aircraft wheelchair scooter drone" speed="22.22" length="18.05" shape="958.44,656.77 958.40,651.56 958.71,647.99 959.46,644.48 960.79,639.43"/>
    </edge>
    <edge id=":2187544213_3" function="internal">
        <lane id=":2187544213_3_0" index="0" disallow="tram rail_urban rail rail_electric rail_fast ship container cable_car subway aircraft wheelchair scooter drone" speed="9.51" length="20.73" shape="958.44,656.77 959.37,652.85 962.38,650.03 967.47,648.30 974.65,647.66"/>
    </edge>
    <edge id=":2187544213_4" function="internal">
        <lane id=":2187544213_4_0" index="0" disallow="tram rail_urban rail rail_electric rail_fast ship container cable_car subway aircraft wheelchair scooter drone" speed="7.57" length="12.74" shape="974.68,650.86 970.32,651.26 967.23,652.35 965.40,654.13 964.84,656.60"/>
    </edge>
    <edge id=":2187544213_5" function="internal">
        <lane id=":2187544213_5_0" index="0" disallow="tram rail_urban rail rail_electric rail_fast ship container cable_car subway aircraft wheelchair scooter drone" speed="22.22" length="25.15" shape="974.68,650.86 949.53,651.06"/>
    </edge>
    <edge id=":2187544213_6" function="internal">
        <lane id=":2187544213_6_0" index="0" disallow="tram rail_urban rail rail_electric rail_fast ship container cable_car subway aircraft wheelchair scooter drone" speed="8.96" length="7.13" shape="974.68,650.86 967.58,650.23"/>
    </edge>
    <edge id=":2187544213_14" function="internal">
        <lane id=":2187544213_14_0" index="0" disallow="tram rail_urban rail rail_electric rail_fast ship container cable_car subway aircraft wheelchair scooter drone" speed="8.96" length="14.59" shape="967.58,650.23 967.47,650.22 962.76,648.10 960.53,644.50 960.79,639.43"/>
    </edge>
    <edge id=":2187544213_7" function="internal">
        <lane id=":2187544213_7_0" index="0" disallow="tram rail_urban rail rail_electric rail_fast ship container cable_car subway aircraft wheelchair scooter drone" speed="6.01" length="9.08" shape="970.08,641.84 969.79,644.41 970.46,646.24 972.08,647.33 974.65,647.66"/>
    </edge>
    <edge id=":2187544213_8" function="internal">
        <lane id=":2187544213_8_0" index="0" disallow="tram rail_urban rail rail_electric rail_fast ship container cable_car subway aircraft wheelchair scooter drone" speed="22.22" length="16.32" shape="970.08,641.84 968.41,646.24 966.65,649.12 965.30,652.05 964.84,656.60"/>
        <lane id=":2187544213_8_1" index="1" disallow="tram rail_urban rail rail_electric rail_fast ship container cable_car subway aircraft wheelchair scooter drone" speed="22.22" length="16.32" shape="966.98,641.03 965.24,645.69 963.45,648.76 962.09,651.88 961.64,656.68"/>
    </edge>
    <edge id=":2187544213_10" function="internal">
        <lane id=":2187544213_10_0" index="0" disallow="tram rail_urban rail rail_electric rail_fast ship container cable_car subway aircraft wheelchair scooter drone" speed="10.32" length="19.55" shape="963.89,640.23 961.94,644.96 958.90,648.34 954.76,650.37 949.53,651.06"/>
    </edge>
    <edge id=":2187544213_11" function="internal">
        <lane id=":2187544213_11_0" index="0" disallow="tram rail_urban rail rail_electric rail_fast ship container cable_car subway aircraft wheelchair scooter drone" speed="8.59" length="13.28" shape="949.52,647.86 952.20,647.28 954.45,645.54 956.28,642.66 957.69,638.63"/>
    </edge>
    <edge id=":2187544213_12" function="internal">
        <lane id=":2187544213_12_0" index="0" disallow="tram rail_urban rail rail_electric rail_fast ship container cable_car subway aircraft wheelchair scooter drone" speed="22.22" length="25.13" shape="949.52,647.86 974.65,647.66"/>
    </edge>
    <edge id=":2187544213_13" function="internal">
        <lane id=":2187544213_13_0" index="0" disallow="tram rail_urban rail rail_electric rail_fast ship container cable_car subway aircraft wheelchair scooter drone" speed="8.76" length="5.45" shape="949.52,647.86 954.73,648.40 954.92,648.48"/>
    </edge>
    <edge id=":2187544213_15" function="internal">
        <lane id=":2187544213_15_0" index="0" disallow="tram rail_urban rail rail_electric rail_fast ship container cable_car subway aircraft wheelchair scooter drone" speed="8.76" length="11.46" shape="954.92,648.48 958.49,650.05 960.80,652.81 961.64,656.68"/>
    </edge>
    <edge id=":2187544217_0" function="internal">
        <lane id=":2187544217_0_0" index="0" disallow="tram rail_urban rail rail_electric rail_fast ship container cable_car subway aircraft wheelchair scooter drone" speed="7.31" length="11.68" shape="963.64,1097.21 963.20,1093.40 962.09,1090.69 960.30,1089.09 957.83,1088.61"/>
    </edge>
    <edge id=":2187544217_1" function="internal">
        <lane id=":2187544217_1_0" index="0" disallow="tram rail_urban rail rail_electric rail_fast ship container cable_car subway aircraft wheelchair scooter drone" speed="22.22" length="33.74" shape="963.64,1097.21 963.90,1087.04 964.78,1078.53 965.69,1070.95 966.00,1063.59"/>
        <lane id=":2187544217_1_1" index="1" disallow="tram rail_urban rail rail_electric rail_fast ship container cable_car subway aircraft wheelchair scooter drone" speed="22.22" length="33.74" shape="966.84,1097.14 967.10,1086.96 967.98,1078.45 968.89,1070.87 969.20,1063.51"/>
    </edge>
    <edge id=":2187544217_3" function="internal">
        <lane id=":2187544217_3_0" index="0" disallow="tram rail_urban rail rail_electric rail_fast ship container cable_car subway aircraft wheelchair scooter drone" speed="10.92" length="27.17" shape="970.04,1097.06 970.80,1089.01 973.52,1083.19 978.19,1079.60 984.82,1078.25"/>
    </edge>
    <edge id=":2187544217_4" function="internal">
        <lane id=":2187544217_4_0" index="0" disallow="tram rail_urban rail rail_electric rail_fast ship container cable_car subway aircraft wheelchair scooter drone" speed="7.37" length="11.84" shape="985.21,1091.05 981.32,1091.52 978.57,1092.65 976.94,1094.45 976.44,1096.91"/>
    </edge>
    <edge id=":2187544217_5" function="internal">
        <lane id=":2187544217_5_0" index="0" disallow="tram rail_urban rail rail_electric rail_fast ship container cable_car subway aircraft wheelchair scooter drone" speed="16.67" length="27.53" shape="985.21,1091.05 977.07,1090.80 971.52,1089.86 965.98,1088.90 957.83,1088.61"/>
        <lane id=":2187544217_5_1" index="1" disallow="tram rail_urban rail rail_electric rail_fast ship container cable_car subway aircraft wheelchair scooter drone" speed="16.67" length="27.53" shape="985.12,1087.85 976.98,1087.60 971.44,1086.66 965.89,1085.70 957.75,1085.41"/>
        <lane id=":2187544217_5_2" index="2" disallow="tram rail_urban rail rail_electric rail_fast ship container cable_car subway aircraft wheelchair scooter drone" speed="16.67" length="27.53" shape="985.02,1084.65 976.89,1084.40 971.35,1083.46 965.81,1082.50 957.68,1082.21"/>
    </edge>
    <edge id=":2187544217_8" function="internal">
        <lane id=":2187544217_8_0" index="0" disallow="tram rail_urban rail rail_electric rail_fast ship container cable_car subway aircraft wheelchair scooter drone" speed="11.35" length="29.70" shape="984.92,1081.45 976.82,1080.55 970.97,1077.27 967.36,1071.62 966.00,1063.59"/>
        <lane id=":2187544217_8_1" index="1" disallow="tram rail_urban rail rail_electric rail_fast ship container cable_car subway aircraft wheelchair scooter drone" speed="10.87" length="27.16" shape="984.92,1081.45 978.22,1080.51 973.37,1077.20 970.36,1071.53 969.20,1063.51"/>
    </edge>
    <edge id=":2187544217_10" function="internal">
        <lane id=":2187544217_10_0" index="0" disallow="tram rail_urban rail rail_electric rail_fast ship container cable_car subway aircraft wheelchair scooter drone" speed="5.58" length="9.35" shape="984.92,1081.45 981.25,1079.16 979.98,1076.80 981.10,1074.37 984.63,1071.86"/>
        <lane id=":2187544217_10_1" index="1" disallow="tram rail_urban rail rail_electric rail_fast ship container cable_car subway aircraft wheelchair scooter drone" speed="4.72" length="9.35" shape="984.92,1081.45 982.47,1079.93 981.63,1078.35 982.38,1076.73 984.73,1075.06"/>
        <lane id=":2187544217_10_2" index="2" disallow="tram rail_urban rail rail_electric rail_fast ship container cable_car subway aircraft wheelchair scooter drone" speed="3.65" length="9.35" shape="984.92,1081.45 983.70,1080.69 983.27,1079.90 983.65,1079.09 984.82,1078.25"/>
    </edge>
    <edge id=":2187544217_13" function="internal">
        <lane id=":2187544217_13_0" index="0" disallow="tram rail_urban rail rail_electric rail_fast ship container cable_car subway aircraft wheelchair scooter drone" speed="7.31" length="11.70" shape="978.79,1063.25 979.24,1067.08 980.37,1069.79 982.16,1071.38 984.63,1071.86"/>
    </edge>
    <edge id=":2187544217_14" function="internal">
        <lane id=":2187544217_14_0" index="0" disallow="tram rail_urban rail rail_electric rail_fast ship container cable_car subway aircraft wheelchair scooter drone" speed="22.22" length="33.76" shape="978.79,1063.25 978.56,1073.43 977.67,1081.96 976.76,1089.54 976.44,1096.91"/>
        <lane id=":2187544217_14_1" index="1" disallow="tram rail_urban rail rail_electric rail_fast ship container cable_car subway aircraft wheelchair scooter drone" speed="22.22" length="33.76" shape="975.59,1063.34 975.36,1073.52 974.48,1082.04 973.56,1089.62 973.24,1096.98"/>
    </edge>
    <edge id=":2187544217_16" function="internal">
        <lane id=":2187544217_16_0" index="0" disallow="tram rail_urban rail rail_electric rail_fast ship container cable_car subway aircraft wheelchair scooter drone" speed="10.88" length="27.15" shape="972.39,1063.42 971.66,1071.50 968.96,1077.32 964.30,1080.89 957.68,1082.21"/>
    </edge>
    <edge id=":2187544217_17" function="internal">
        <lane id=":2187544217_17_0" index="0" disallow="tram rail_urban rail rail_electric rail_fast ship container cable_car subway aircraft wheelchair scooter drone" speed="7.32" length="11.71" shape="957.36,1069.41 961.19,1068.97 963.91,1067.85 965.51,1066.06 966.00,1063.59"/>
    </edge>
    <edge id=":2187544217_18" function="internal">
        <lane id=":2187544217_18_0" index="0" disallow="tram rail_urban rail rail_electric rail_fast ship container cable_car subway aircraft wheelchair scooter drone" speed="16.67" length="27.44" shape="957.36,1069.41 965.47,1069.71 970.99,1070.66 976.52,1071.60 984.63,1071.86"/>
    </edge>
    <edge id=":2187544217_19" function="internal">
        <lane id=":2187544217_19_0" index="0" disallow="tram rail_urban rail rail_electric rail_fast ship container cable_car subway aircraft wheelchair scooter drone" speed="11.88" length="32.59" shape="957.44,1072.61 964.13,1073.99 968.99,1078.52 972.03,1086.18 973.24,1096.98"/>
    </edge>
    <edge id=":2187544217_20" function="internal">
        <lane id=":2187544217_20_0" index="0" disallow="tram rail_urban rail rail_electric rail_fast ship container cable_car subway aircraft wheelchair scooter drone" speed="7.00" length="18.69" shape="957.44,1072.61 963.53,1076.46 965.63,1080.41 963.73,1084.46 957.83,1088.61"/>
        <lane id=":2187544217_20_1" index="1" disallow="tram rail_urban rail rail_electric rail_fast ship container cable_car subway aircraft wheelchair scooter drone" speed="6.33" length="18.69" shape="957.44,1072.61 962.31,1075.69 963.99,1078.85 962.47,1082.09 957.75,1085.41"/>
        <lane id=":2187544217_20_2" index="2" disallow="tram rail_urban rail rail_electric rail_fast ship container cable_car subway aircraft wheelchair scooter drone" speed="5.58" length="18.69" shape="957.44,1072.61 961.10,1074.92 962.35,1077.29 961.21,1079.72 957.68,1082.21"/>
    </edge>
    <edge id=":2187544217_23" function="internal">
        <lane id=":2187544217_23_0" index="0" disallow="tram rail_urban rail rail_electric rail_fast ship container cable_car subway aircraft wheelchair scooter drone" speed="16.67" length="27.23" shape="957.52,1075.81 984.73,1075.06"/>
        <lane id=":2187544217_23_1" index="1" disallow="tram rail_urban rail rail_electric rail_fast ship container cable_car subway aircraft wheelchair scooter drone" speed="16.67" length="27.23" shape="957.60,1079.01 984.82,1078.25"/>
    </edge>
    <edge id=":2187544218_0" function="internal">
        <lane id=":2187544218_0_0" index="0" disallow="tram rail_urban rail rail_electric rail_fast ship container cable_car subway aircraft wheelchair scooter drone" speed="9.12" length="17.12" shape="617.55,1106.63 611.21,1107.14 606.61,1108.29 603.76,1110.08 602.66,1112.50"/>
    </edge>
    <edge id=":2187544218_1" function="internal">
        <lane id=":2187544218_1_0" index="0" disallow="tram rail_urban rail rail_electric rail_fast ship container cable_car subway aircraft wheelchair scooter drone" speed="12.49" length="37.91" shape="617.44,1103.43 608.78,1101.94 602.75,1096.92 599.36,1088.38 598.60,1076.32"/>
    </edge>
    <edge id=":2187544218_2" function="internal">
        <lane id=":2187544218_2_0" index="0" disallow="tram rail_urban rail rail_electric rail_fast ship container cable_car subway aircraft wheelchair scooter drone" speed="6.33" length="18.69" shape="617.44,1103.43 612.54,1100.39 610.83,1097.25 612.32,1094.00 617.02,1090.64"/>
    </edge>
    <edge id=":2187544218_3" function="internal">
        <lane id=":2187544218_3_0" index="0" disallow="tram rail_urban rail rail_electric rail_fast ship container cable_car subway aircraft wheelchair scooter drone" speed="16.67" length="35.49" shape="617.34,1100.23 581.81,1101.14"/>
        <lane id=":2187544218_3_1" index="1" disallow="tram rail_urban rail rail_electric rail_fast ship container cable_car subway aircraft wheelchair scooter drone" speed="16.67" length="35.49" shape="617.23,1097.04 581.75,1097.94"/>
        <lane id=":2187544218_3_2" index="2" disallow="tram rail_urban rail rail_electric rail_fast ship container cable_car subway aircraft wheelchair scooter drone" speed="16.67" length="35.49" shape="617.12,1093.84 581.69,1094.74"/>
    </edge>
    <edge id=":2187544218_6" function="internal">
        <lane id=":2187544218_6_0" index="0" disallow="tram rail_urban rail rail_electric rail_fast ship container cable_car subway aircraft wheelchair scooter drone" speed="6.82" length="10.55" shape="611.39,1076.84 611.61,1080.14 612.59,1082.47 614.32,1083.84 616.80,1084.24"/>
    </edge>
    <edge id=":2187544218_7" function="internal">
        <lane id=":2187544218_7_0" index="0" disallow="tram rail_urban rail rail_electric rail_fast ship container cable_car subway aircraft wheelchair scooter drone" speed="22.22" length="36.19" shape="608.20,1076.71 607.14,1088.53 605.47,1097.65 603.78,1105.25 602.66,1112.50"/>
        <lane id=":2187544218_7_1" index="1" disallow="tram rail_urban rail rail_electric rail_fast ship container cable_car subway aircraft wheelchair scooter drone" speed="22.22" length="36.19" shape="605.00,1076.58 603.94,1088.35 602.28,1097.42 600.59,1104.99 599.47,1112.22"/>
    </edge>
    <edge id=":2187544218_9" function="internal">
        <lane id=":2187544218_9_0" index="0" disallow="tram rail_urban rail rail_electric rail_fast ship container cable_car subway aircraft wheelchair scooter drone" speed="11.79" length="30.60" shape="601.80,1076.45 600.27,1084.32 596.41,1089.99 590.21,1093.46 581.69,1094.74"/>
    </edge>
    <edge id=":2187544218_10" function="internal">
        <lane id=":2187544218_10_0" index="0" disallow="tram rail_urban rail rail_electric rail_fast ship container cable_car subway aircraft wheelchair scooter drone" speed="8.72" length="16.30" shape="581.45,1081.94 587.47,1081.49 591.81,1080.38 594.45,1078.61 595.41,1076.18"/>
    </edge>
    <edge id=":2187544218_11" function="internal">
        <lane id=":2187544218_11_0" index="0" disallow="tram rail_urban rail rail_electric rail_fast ship container cable_car subway aircraft wheelchair scooter drone" speed="16.67" length="35.42" shape="581.45,1081.94 616.80,1084.24"/>
    </edge>
    <edge id=":2187544218_12" function="internal">
        <lane id=":2187544218_12_0" index="0" disallow="tram rail_urban rail rail_electric rail_fast ship container cable_car subway aircraft wheelchair scooter drone" speed="12.45" length="38.67" shape="581.51,1085.14 591.68,1086.71 597.42,1091.82 599.69,1100.36 599.47,1112.22"/>
    </edge>
    <edge id=":2187544218_13" function="internal">
        <lane id=":2187544218_13_0" index="0" disallow="tram rail_urban rail rail_electric rail_fast ship container cable_car subway aircraft wheelchair scooter drone" speed="5.58" length="14.02" shape="581.51,1085.14 585.16,1087.47 586.40,1089.85 585.24,1092.27 581.69,1094.74"/>
    </edge>
    <edge id=":2187544218_14" function="internal">
        <lane id=":2187544218_14_0" index="0" disallow="tram rail_urban rail rail_electric rail_fast ship container cable_car subway aircraft wheelchair scooter drone" speed="16.67" length="35.37" shape="581.57,1088.34 616.91,1087.44"/>
        <lane id=":2187544218_14_1" index="1" disallow="tram rail_urban rail rail_electric rail_fast ship container cable_car subway aircraft wheelchair scooter drone" speed="16.67" length="35.37" shape="581.63,1091.54 617.02,1090.64"/>
    </edge>
    <edge id=":2187544218_16" function="internal">
        <lane id=":2187544218_16_0" index="0" disallow="tram rail_urban rail rail_electric rail_fast ship container cable_car subway aircraft wheelchair scooter drone" speed="7.33" length="12.67" shape="586.71,1111.13 586.73,1106.72 585.92,1103.58 584.28,1101.72 581.81,1101.14"/>
    </edge>
    <edge id=":2187544218_17" function="internal">